1

   Abaqus 2024                                  Date 31-Mar-2026   Time 10:32:16
   For use by UNIVERSITAET INNSBRUCK under license from Dassault Systemes or its subsidiary.

                                                                                 
                                                                                 
 STEP    1     INCREMENT     1     STEP TIME    0.00    


                        S T E P       1     D Y N A M I C   A N A L Y S I S - I M P L I C I T  I N T E G R A T I O N


                                                                                          

          DYNAMIC APPLICATION PACKED SCHEME IS                 MODERATE DISSIPATION
          HILBER-HUGHES-TAYLOR (HHT) TIME INTEGRATOR IS USED

     AUTOMATIC TIME CONTROL WITH -
          A SUGGESTED INITIAL TIME INCREMENT OF                1.000E-02
          AND A TOTAL TIME PERIOD OF                            60.0    
          THE MINIMUM TIME INCREMENT ALLOWED IS                1.000E-09
          THE MAXIMUM TIME INCREMENT ALLOWED IS                0.500    

          THE HALF-INCREMENT RESIDUALS WILL NOT BE CALCULATED

          INITIAL ACCELERATIONS WILL NOT BE CALCULATED

          HILBER-HUGHES-TAYLOR METHOD PARAMETERS:  ALPHA   IS  -0.414214    
                                                   BETA    IS   0.500000    
                                                   GAMMA   IS   0.914214    
          CONTACT IMPACT/RELEASE COMPUTATIONS ARE SKIPPED
          AGGRESSIVE   TIME INCREMENTATION IS USED
          STEP AMPLITUDE IS                                    STEP

 CONVERGENCE TOLERANCE PARAMETERS FOR FORCE    
     CRITERION FOR RESIDUAL FORCE     FOR A NONLINEAR PROBLEM          5.000E-03
     CRITERION FOR DISP.    CORRECTION IN A NONLINEAR PROBLEM          1.000E-02
     INITIAL VALUE OF TIME AVERAGE FORCE                               1.000E-02
     AVERAGE FORCE     IS TIME AVERAGE FORCE    
     ALTERNATE CRIT. FOR RESIDUAL FORCE     FOR A NONLINEAR PROBLEM    2.000E-02
     CRITERION FOR ZERO FORCE     RELATIVE TO TIME AVRG. FORCE         1.000E-05
     CRITERION FOR RESIDUAL FORCE     WHEN THERE IS ZERO FLUX          1.000E-05
     CRITERION FOR DISP.    CORRECTION WHEN THERE IS ZERO FLUX         1.000E-03
     CRITERION FOR RESIDUAL FORCE     FOR A LINEAR INCREMENT           1.000E-08
     FIELD CONVERSION RATIO                                             1.00    
     CRITERION FOR ZERO FORCE     REL. TO TIME AVRG. MAX. FORCE        1.000E-05
     CRITERION FOR ZERO DISP.    RELATIVE TO CHARACTERISTIC LENGTH     1.000E-08

     VOLUMETRIC STRAIN COMPATIBILITY TOLERANCE FOR HYBRID SOLIDS       1.000E-05
     AXIAL STRAIN COMPATIBILITY TOLERANCE FOR HYBRID BEAMS             1.000E-05
     TRANS. SHEAR STRAIN COMPATIBILITY TOLERANCE FOR HYBRID BEAMS      1.000E-05
     SOFT CONTACT CONSTRAINT COMPATIBILITY TOLERANCE FOR P>P0          5.000E-03
     SOFT CONTACT CONSTRAINT COMPATIBILITY TOLERANCE FOR P=0.0         0.100    
     CONTACT FORCE ERROR TOLERANCE FOR CONVERT SDI=YES                 1.00    
     DISPLACEMENT COMPATIBILITY TOLERANCE FOR DCOUP ELEMENTS           1.000E-05
     ROTATION COMPATIBILITY TOLERANCE FOR DCOUP ELEMENTS               1.000E-05

 EQUILIBRIUM WILL BE CHECKED FOR SEVERE DISCONTINUITY ITERATIONS

 TIME INCREMENTATION CONTROL PARAMETERS:
     FIRST EQUILIBRIUM ITERATION FOR CONSECUTIVE DIVERGENCE CHECK              4
     EQUILIBRIUM ITERATION AT WHICH LOG. CONVERGENCE RATE CHECK BEGINS         8
     EQUILIBRIUM ITERATION AFTER WHICH ALTERNATE RESIDUAL IS USED              9
 *** MAXIMUM EQUILIBRIUM ITERATIONS ALLOWED                                   50
     EQUILIBRIUM ITERATION COUNT FOR CUT-BACK IN NEXT INCREMENT               10
     MAXIMUM EQUILIB. ITERS IN TWO INCREMENTS FOR TIME INCREMENT INCREASE      4
     MAXIMUM ITERATIONS FOR SEVERE DISCONTINUITIES                            50
 *** MAXIMUM ATTEMPTS ALLOWED IN AN INCREMENT                                 12
     MAXIMUM DISCON. ITERS IN TWO INCREMENTS FOR TIME INCREMENT INCREASE      50
     MAXIMUM CONTACT AUGMENTATIONS FOR *SURFACE BEHAVIOR,AUGMENTED LAGRANGE   50
     CUT-BACK FACTOR AFTER DIVERGENCE                                 0.2500    
     CUT-BACK FACTOR FOR TOO SLOW CONVERGENCE                         0.5000    
     CUT-BACK FACTOR AFTER TOO MANY EQUILIBRIUM ITERATIONS            0.7500    
     CUT-BACK FACTOR AFTER TOO MANY SEVERE DISCONTINUITY ITERATIONS   0.2500    
     CUT-BACK FACTOR AFTER PROBLEMS IN ELEMENT ASSEMBLY               0.2500    
     INCREASE FACTOR AFTER TWO INCREMENTS THAT CONVERGE QUICKLY        1.500    
     MAX. TIME INCREMENT INCREASE FACTOR ALLOWED                       1.500    
     MAX. TIME INCREMENT INCREASE FACTOR ALLOWED (DYNAMICS)            1.250    
     MAX. TIME INCREMENT INCREASE FACTOR ALLOWED (DIFFUSION)           2.000    
     MINIMUM TIME INCREMENT RATIO FOR EXTRAPOLATION TO OCCUR          0.1000    
     MAX. RATIO OF TIME INCREMENT TO STABILITY LIMIT                   1.000    
     FRACTION OF STABILITY LIMIT FOR NEW TIME INCREMENT               0.9500    
     TIME INCREMENT INCREASE FACTOR BEFORE A TIME POINT                1.000    

 *** INDICATES USE OF NON-DEFAULT TIME INCREMENTATION CONTROL PARAMETER
     SELECTED WITH *CONTROLS

 CONTACT CONTROLS APPLIED TO ALL CONTACT PAIRS:
     GLOBAL STABILIZATION CONTROL IS NOT USED
     RELATIVE PENETRATION TOLERANCE FOR AUGMENTED LAGRANGE CONTACT:
          FINITE-SLIDING SURFACE-TO-SURFACE                            5.000E-02
          OTHERWISE                                                    1.000E-03

          PRINT OF INCREMENT NUMBER, TIME, ETC., EVERY    1  INCREMENTS

     THE MAXIMUM NUMBER OF INCREMENTS IN THIS STEP IS                  100000

          UNSYMMETRIC MATRIX STORAGE AND SOLUTION WILL BE USED

     LINEAR EXTRAPOLATION WILL BE USED

     CHARACTERISTIC ELEMENT LENGTH      4.01    

     DETAILS REGARDING ACTUAL SOLUTION WAVEFRONT REQUESTED

     DETAILED OUTPUT OF DIAGNOSTICS TO DATABASE REQUESTED

     PRINT OF INCREMENT NUMBER, TIME, ETC., TO THE MESSAGE FILE EVERY     1  INCREMENTS

     ELEMENT OPERATIONS WILL BE CARRIED OUT IN PARALLEL USING  10 THREADS ON 1 DOMAIN

     PARALLEL CONTACT TRACKING ENABLED


     COLLECTING MODEL CONSTRAINT INFORMATION FOR OVERCONSTRAINT CHECKS

     COLLECTING STEP CONSTRAINT INFORMATION FOR OVERCONSTRAINT CHECKS


  INCREMENT     1 STARTS. ATTEMPT NUMBER  1, TIME INCREMENT  1.000E-02
 
     INITIAL ELEMENT LOAD BALANCE
            DOMAIN    1     THREAD    NUMBER OF ELEMENTS
                              1            976
                              2            984
                              3            1000
                              4            1027
                              5            1032
                              6            1016
                              7            1024
                              8            1024
                              9            968
                             10            1028
 
	UNSYMMETRIC DIRECT SPARSE SOLVER RUNNING ON
 	1 HOST x 1 MPI RANK PER HOST x 10 THREADS PER RANK
        NUMBER OF EQUATIONS:  205488
        NUMBER OF RHS:        1
        NUMBER OF FLOPS:      9.721e+10
        SOLVER ELAPSED TIME:  617ms

                  470 SEVERE DISCONTINUITIES OCCURRED DURING THIS ITERATION.
                  470 POINTS CHANGED FROM CLOSED TO OPEN

               CONVERGENCE CHECKS FOR SEVERE DISCONTINUITY ITERATION     1

   MAX. PENETRATION ERROR -490.283E-15   AT NODE CONCRETE-1.25254 OF CONTACT 
   PAIR (GENERAL_CONTACT_FACES_3,GENERAL_CONTACT_FACES_2)
   MAX. CONTACT FORCE ERROR -54.4137E-03  AT NODE CONCRETE-1.38360 OF CONTACT 
   PAIR (GENERAL_CONTACT_FACES_3,GENERAL_CONTACT_FACES_2)
          THE ESTIMATED CONTACT FORCE ERROR IS OUTSIDE OF CONVERGENCE TOLERANCES.

 AVERAGE FORCE                      1.259E-03   TIME AVG. FORCE       1.259E-03
 LARGEST SCALED RESIDUAL FORCE     -6.777E-02   AT NODE      68207   DOF  1
   INSTANCE: ANCHOR-1                                                                        
  CORRESPONDING RESIDUAL FORCE     -6.777E-02
 LARGEST INCREMENT OF DISP.         1.667E-04   AT NODE          1   DOF  2
   INSTANCE: ANCHOR-1                                                                        
 LARGEST CORRECTION TO DISP.        1.667E-04   AT NODE          1   DOF  2
   INSTANCE: ANCHOR-1                                                                        
          FORCE     EQUILIBRIUM NOT ACHIEVED WITHIN TOLERANCE.
 
	UNSYMMETRIC DIRECT SPARSE SOLVER RUNNING ON
 	1 HOST x 1 MPI RANK PER HOST x 10 THREADS PER RANK
        NUMBER OF EQUATIONS:  205488
        NUMBER OF RHS:        1
        NUMBER OF FLOPS:      8.985e+10
        SOLVER ELAPSED TIME:  530ms

                  174 SEVERE DISCONTINUITIES OCCURRED DURING THIS ITERATION.
                  165 POINTS CHANGED FROM OPEN TO CLOSED
                    9 POINTS CHANGED FROM CLOSED TO OPEN

               CONVERGENCE CHECKS FOR SEVERE DISCONTINUITY ITERATION     2

   MAX. PENETRATION ERROR 36.1492E-06  AT NODE CONCRETE-1.6578 OF CONTACT PAIR 
   (GENERAL_CONTACT_FACES_4,GENERAL_CONTACT_FACES_1)
   MAX. CONTACT FORCE ERROR 942.921E-03   AT NODE CONCRETE-1.38670 OF CONTACT 
   PAIR (GENERAL_CONTACT_FACES_4,GENERAL_CONTACT_FACES_1)
          PENETRATION ERROR TOO LARGE COMPARED TO DISPLACEMENT INCREMENT.

 AVERAGE FORCE                      1.095E-03   TIME AVG. FORCE       1.095E-03
 LARGEST SCALED RESIDUAL FORCE      0.122       AT NODE      25254   DOF  1
   INSTANCE: CONCRETE-1                                                                      
  CORRESPONDING RESIDUAL FORCE      0.122    
 LARGEST INCREMENT OF DISP.         1.667E-04   AT NODE          1   DOF  2
   INSTANCE: ANCHOR-1                                                                        
 LARGEST CORRECTION TO DISP.       -4.861E-05   AT NODE      10399   DOF  2
   INSTANCE: CONCRETE-1                                                                      
          FORCE     EQUILIBRIUM NOT ACHIEVED WITHIN TOLERANCE.
 
	UNSYMMETRIC DIRECT SPARSE SOLVER RUNNING ON
 	1 HOST x 1 MPI RANK PER HOST x 10 THREADS PER RANK
        NUMBER OF EQUATIONS:  205488
        NUMBER OF RHS:        1
        NUMBER OF FLOPS:      9.065e+10
        SOLVER ELAPSED TIME:  624ms

                   10 SEVERE DISCONTINUITIES OCCURRED DURING THIS ITERATION.
                   10 POINTS CHANGED FROM CLOSED TO OPEN

               CONVERGENCE CHECKS FOR SEVERE DISCONTINUITY ITERATION     3

   MAX. PENETRATION ERROR -17.3965E-12  AT NODE CONCRETE-1.1646 OF CONTACT PAIR 
   (GENERAL_CONTACT_FACES_4,GENERAL_CONTACT_FACES_1)
   MAX. CONTACT FORCE ERROR -67.9936E-03  AT NODE CONCRETE-1.38639 OF CONTACT 
   PAIR (GENERAL_CONTACT_FACES_4,GENERAL_CONTACT_FACES_1)
          THE ESTIMATED CONTACT FORCE ERROR IS OUTSIDE OF CONVERGENCE TOLERANCES.

 AVERAGE FORCE                      1.251E-03   TIME AVG. FORCE       1.251E-03
 LARGEST SCALED RESIDUAL FORCE      4.661E-02   AT NODE      66700   DOF  1
   INSTANCE: ANCHOR-1                                                                        
  CORRESPONDING RESIDUAL FORCE      4.661E-02
 LARGEST INCREMENT OF DISP.         1.667E-04   AT NODE          1   DOF  2
   INSTANCE: ANCHOR-1                                                                        
 LARGEST CORRECTION TO DISP.        3.424E-05   AT NODE       6569   DOF  2
   INSTANCE: CONCRETE-1                                                                      
          FORCE     EQUILIBRIUM NOT ACHIEVED WITHIN TOLERANCE.
 
	UNSYMMETRIC DIRECT SPARSE SOLVER RUNNING ON
 	1 HOST x 1 MPI RANK PER HOST x 10 THREADS PER RANK
        NUMBER OF EQUATIONS:  205488
        NUMBER OF RHS:        1
        NUMBER OF FLOPS:      9.065e+10
        SOLVER ELAPSED TIME:  561ms

                    7 SEVERE DISCONTINUITIES OCCURRED DURING THIS ITERATION.
                    3 POINTS CHANGED FROM OPEN TO CLOSED
                    4 POINTS CHANGED FROM CLOSED TO OPEN

               CONVERGENCE CHECKS FOR SEVERE DISCONTINUITY ITERATION     4

   MAX. PENETRATION ERROR 82.9292E-09  AT NODE CONCRETE-1.25231 OF CONTACT PAIR 
   (GENERAL_CONTACT_FACES_3,GENERAL_CONTACT_FACES_2)
   MAX. CONTACT FORCE ERROR -46.9766E-03  AT NODE CONCRETE-1.38488 OF CONTACT 
   PAIR (GENERAL_CONTACT_FACES_3,GENERAL_CONTACT_FACES_2)
          THE ESTIMATED CONTACT FORCE ERROR IS OUTSIDE OF CONVERGENCE TOLERANCES.

 AVERAGE FORCE                      1.253E-03   TIME AVG. FORCE       1.253E-03
 LARGEST SCALED RESIDUAL FORCE     -2.869E-02   AT NODE      66707   DOF  1
   INSTANCE: ANCHOR-1                                                                        
  CORRESPONDING RESIDUAL FORCE     -2.869E-02
 LARGEST INCREMENT OF DISP.         1.667E-04   AT NODE          1   DOF  2
   INSTANCE: ANCHOR-1                                                                        
 LARGEST CORRECTION TO DISP.        1.196E-06   AT NODE      25230   DOF  1
   INSTANCE: CONCRETE-1                                                                      
          FORCE     EQUILIBRIUM NOT ACHIEVED WITHIN TOLERANCE.
 
	UNSYMMETRIC DIRECT SPARSE SOLVER RUNNING ON
 	1 HOST x 1 MPI RANK PER HOST x 10 THREADS PER RANK
        NUMBER OF EQUATIONS:  205488
        NUMBER OF RHS:        1
        NUMBER OF FLOPS:      9.065e+10
        SOLVER ELAPSED TIME:  573ms

                    5 SEVERE DISCONTINUITIES OCCURRED DURING THIS ITERATION.
                    5 POINTS CHANGED FROM CLOSED TO OPEN

               CONVERGENCE CHECKS FOR SEVERE DISCONTINUITY ITERATION     5

   MAX. PENETRATION ERROR 43.3268E-15  AT NODE CONCRETE-1.38645 OF CONTACT PAIR 
   (GENERAL_CONTACT_FACES_4,GENERAL_CONTACT_FACES_1)
   MAX. CONTACT FORCE ERROR -16.0393E-03  AT NODE CONCRETE-1.10591 OF CONTACT 
   PAIR (GENERAL_CONTACT_FACES_3,GENERAL_CONTACT_FACES_2)
          THE ESTIMATED CONTACT FORCE ERROR IS OUTSIDE OF CONVERGENCE TOLERANCES.

 AVERAGE FORCE                      1.252E-03   TIME AVG. FORCE       1.252E-03
 LARGEST SCALED RESIDUAL FORCE      1.097E-02   AT NODE      38488   DOF  1
   INSTANCE: CONCRETE-1                                                                      
  CORRESPONDING RESIDUAL FORCE      1.097E-02
 LARGEST INCREMENT OF DISP.         1.667E-04   AT NODE          1   DOF  2
   INSTANCE: ANCHOR-1                                                                        
 LARGEST CORRECTION TO DISP.        1.050E-06   AT NODE      38488   DOF  1
   INSTANCE: CONCRETE-1                                                                      
          FORCE     EQUILIBRIUM NOT ACHIEVED WITHIN TOLERANCE.
 
	UNSYMMETRIC DIRECT SPARSE SOLVER RUNNING ON
 	1 HOST x 1 MPI RANK PER HOST x 10 THREADS PER RANK
        NUMBER OF EQUATIONS:  205488
        NUMBER OF RHS:        1
        NUMBER OF FLOPS:      9.047e+10
        SOLVER ELAPSED TIME:  542ms

                    4 SEVERE DISCONTINUITIES OCCURRED DURING THIS ITERATION.
                    4 POINTS CHANGED FROM OPEN TO CLOSED

               CONVERGENCE CHECKS FOR SEVERE DISCONTINUITY ITERATION     6

   MAX. PENETRATION ERROR 246.502E-09   AT NODE CONCRETE-1.10591 OF CONTACT 
   PAIR (GENERAL_CONTACT_FACES_3,GENERAL_CONTACT_FACES_2)
   MAX. CONTACT FORCE ERROR 2.31952E-03 AT NODE CONCRETE-1.38488 OF CONTACT 
   PAIR (GENERAL_CONTACT_FACES_3,GENERAL_CONTACT_FACES_2)
          THE ESTIMATED CONTACT FORCE ERROR IS OUTSIDE OF CONVERGENCE TOLERANCES.

 AVERAGE FORCE                      1.251E-03   TIME AVG. FORCE       1.251E-03
 LARGEST SCALED RESIDUAL FORCE     -3.100E-07   AT NODE      38512   DOF  1
   INSTANCE: CONCRETE-1                                                                      
  CORRESPONDING RESIDUAL FORCE     -3.100E-07
 LARGEST INCREMENT OF DISP.         1.667E-04   AT NODE          1   DOF  2
   INSTANCE: ANCHOR-1                                                                        
 LARGEST CORRECTION TO DISP.        2.980E-06   AT NODE      10591   DOF  1
   INSTANCE: CONCRETE-1                                                                      
          DISP.    CORRECTION TOO LARGE COMPARED TO DISP.    INCREMENT
 
	UNSYMMETRIC DIRECT SPARSE SOLVER RUNNING ON
 	1 HOST x 1 MPI RANK PER HOST x 10 THREADS PER RANK
        NUMBER OF EQUATIONS:  205488
        NUMBER OF RHS:        1
        NUMBER OF FLOPS:      9.047e+10
        SOLVER ELAPSED TIME:  515ms

               CONVERGENCE CHECKS FOR EQUILIBRIUM ITERATION     1

   MAX. PENETRATION ERROR -34.7650E-15  AT NODE CONCRETE-1.3242 OF CONTACT PAIR 
   (GENERAL_CONTACT_FACES_4,GENERAL_CONTACT_FACES_1)
   MAX. CONTACT FORCE ERROR -794.474E-12   AT NODE CONCRETE-1.38664 OF CONTACT 
   PAIR (GENERAL_CONTACT_FACES_4,GENERAL_CONTACT_FACES_1)
          THE CONTACT CONSTRAINTS HAVE CONVERGED.

 AVERAGE FORCE                      1.253E-03   TIME AVG. FORCE       1.253E-03
 LARGEST SCALED RESIDUAL FORCE     -2.720E-07   AT NODE      66707   DOF  2
   INSTANCE: ANCHOR-1                                                                        
  CORRESPONDING RESIDUAL FORCE     -2.720E-07
 LARGEST INCREMENT OF DISP.         1.667E-04   AT NODE          1   DOF  2
   INSTANCE: ANCHOR-1                                                                        
 LARGEST CORRECTION TO DISP.        2.661E-07   AT NODE      38488   DOF  2
   INSTANCE: CONCRETE-1                                                                      
          THE FORCE     EQUILIBRIUM EQUATIONS HAVE CONVERGED

 ITERATION SUMMARY FOR THE INCREMENT:   7 TOTAL ITERATIONS, OF WHICH
   6 ARE SEVERE DISCONTINUITY ITERATIONS AND  1 ARE EQUILIBRIUM ITERATIONS.

 TIME INCREMENT COMPLETED  1.000E-02,  FRACTION OF STEP COMPLETED  1.667E-04
 STEP TIME COMPLETED       1.000E-02,  TOTAL TIME COMPLETED        1.000E-02


  INCREMENT     2 STARTS. ATTEMPT NUMBER  1, TIME INCREMENT  1.000E-02
 
	UNSYMMETRIC DIRECT SPARSE SOLVER RUNNING ON
 	1 HOST x 1 MPI RANK PER HOST x 10 THREADS PER RANK
        NUMBER OF EQUATIONS:  205488
        NUMBER OF RHS:        1
        NUMBER OF FLOPS:      9.047e+10
        SOLVER ELAPSED TIME:  515ms

               CONVERGENCE CHECKS FOR EQUILIBRIUM ITERATION     1

   MAX. PENETRATION ERROR 33.8339E-15  AT NODE CONCRETE-1.25297 OF CONTACT PAIR 
   (GENERAL_CONTACT_FACES_4,GENERAL_CONTACT_FACES_1)
   MAX. CONTACT FORCE ERROR 595.382E-12   AT NODE CONCRETE-1.38537 OF CONTACT 
   PAIR (GENERAL_CONTACT_FACES_3,GENERAL_CONTACT_FACES_2)
          THE CONTACT CONSTRAINTS HAVE CONVERGED.

 AVERAGE FORCE                      8.171E-03   TIME AVG. FORCE       4.712E-03
 LARGEST SCALED RESIDUAL FORCE     -4.298E-08   AT NODE      66722   DOF  1
   INSTANCE: ANCHOR-1                                                                        
  CORRESPONDING RESIDUAL FORCE     -4.298E-08
 LARGEST INCREMENT OF DISP.         1.667E-04   AT NODE          1   DOF  2
   INSTANCE: ANCHOR-1                                                                        
 LARGEST CORRECTION TO DISP.        8.509E-07   AT NODE      10312   DOF  2
   INSTANCE: CONCRETE-1                                                                      
          THE FORCE     EQUILIBRIUM EQUATIONS HAVE CONVERGED
          TIME INCREMENT MAY NOW INCREASE TO    1.500E-02

 ITERATION SUMMARY FOR THE INCREMENT:   1 TOTAL ITERATIONS, OF WHICH
   0 ARE SEVERE DISCONTINUITY ITERATIONS AND  1 ARE EQUILIBRIUM ITERATIONS.

 TIME INCREMENT COMPLETED  1.000E-02,  FRACTION OF STEP COMPLETED  3.333E-04
 STEP TIME COMPLETED       2.000E-02,  TOTAL TIME COMPLETED        2.000E-02


  INCREMENT     3 STARTS. ATTEMPT NUMBER  1, TIME INCREMENT  1.500E-02
 
	UNSYMMETRIC DIRECT SPARSE SOLVER RUNNING ON
 	1 HOST x 1 MPI RANK PER HOST x 10 THREADS PER RANK
        NUMBER OF EQUATIONS:  205488
        NUMBER OF RHS:        1
        NUMBER OF FLOPS:      9.047e+10
        SOLVER ELAPSED TIME:  512ms

               CONVERGENCE CHECKS FOR EQUILIBRIUM ITERATION     1

   MAX. PENETRATION ERROR 44.9108E-15  AT NODE CONCRETE-1.4808 OF CONTACT PAIR 
   (GENERAL_CONTACT_FACES_3,GENERAL_CONTACT_FACES_2)
   MAX. CONTACT FORCE ERROR 784.209E-12   AT NODE CONCRETE-1.38535 OF CONTACT 
   PAIR (GENERAL_CONTACT_FACES_3,GENERAL_CONTACT_FACES_2)
          THE CONTACT CONSTRAINTS HAVE CONVERGED.

 AVERAGE FORCE                      1.429E-02   TIME AVG. FORCE       7.903E-03
 LARGEST SCALED RESIDUAL FORCE     -1.081E-08   AT NODE      66580   DOF  1
   INSTANCE: ANCHOR-1                                                                        
  CORRESPONDING RESIDUAL FORCE     -1.081E-08
 LARGEST INCREMENT OF DISP.         2.500E-04   AT NODE          1   DOF  2
   INSTANCE: ANCHOR-1                                                                        
 LARGEST CORRECTION TO DISP.       -1.690E-06   AT NODE      10312   DOF  2
   INSTANCE: CONCRETE-1                                                                      
          THE FORCE     EQUILIBRIUM EQUATIONS HAVE CONVERGED
          TIME INCREMENT MAY NOW INCREASE TO    2.250E-02

 ITERATION SUMMARY FOR THE INCREMENT:   1 TOTAL ITERATIONS, OF WHICH
   0 ARE SEVERE DISCONTINUITY ITERATIONS AND  1 ARE EQUILIBRIUM ITERATIONS.

 TIME INCREMENT COMPLETED  1.500E-02,  FRACTION OF STEP COMPLETED  5.833E-04
 STEP TIME COMPLETED       3.500E-02,  TOTAL TIME COMPLETED        3.500E-02


  INCREMENT     4 STARTS. ATTEMPT NUMBER  1, TIME INCREMENT  2.250E-02
 
	UNSYMMETRIC DIRECT SPARSE SOLVER RUNNING ON
 	1 HOST x 1 MPI RANK PER HOST x 10 THREADS PER RANK
        NUMBER OF EQUATIONS:  205488
        NUMBER OF RHS:        1
        NUMBER OF FLOPS:      9.047e+10
        SOLVER ELAPSED TIME:  508ms

               CONVERGENCE CHECKS FOR EQUILIBRIUM ITERATION     1

   MAX. PENETRATION ERROR 48.1806E-15  AT NODE CONCRETE-1.38518 OF CONTACT PAIR 
   (GENERAL_CONTACT_FACES_3,GENERAL_CONTACT_FACES_2)
   MAX. CONTACT FORCE ERROR 1.07342E-09 AT NODE CONCRETE-1.38657 OF CONTACT 
   PAIR (GENERAL_CONTACT_FACES_4,GENERAL_CONTACT_FACES_1)
          THE CONTACT CONSTRAINTS HAVE CONVERGED.

 AVERAGE FORCE                      2.335E-02   TIME AVG. FORCE       1.177E-02
 LARGEST SCALED RESIDUAL FORCE     -2.086E-09   AT NODE      38657   DOF  1
   INSTANCE: CONCRETE-1                                                                      
  CORRESPONDING RESIDUAL FORCE     -2.086E-09
 LARGEST INCREMENT OF DISP.         3.750E-04   AT NODE          1   DOF  2
   INSTANCE: ANCHOR-1                                                                        
 LARGEST CORRECTION TO DISP.        1.763E-06   AT NODE      10312   DOF  2
   INSTANCE: CONCRETE-1                                                                      
          THE FORCE     EQUILIBRIUM EQUATIONS HAVE CONVERGED
          TIME INCREMENT MAY NOW INCREASE TO    3.375E-02

 ITERATION SUMMARY FOR THE INCREMENT:   1 TOTAL ITERATIONS, OF WHICH
   0 ARE SEVERE DISCONTINUITY ITERATIONS AND  1 ARE EQUILIBRIUM ITERATIONS.

 TIME INCREMENT COMPLETED  2.250E-02,  FRACTION OF STEP COMPLETED  9.583E-04
 STEP TIME COMPLETED       5.750E-02,  TOTAL TIME COMPLETED        5.750E-02


  INCREMENT     5 STARTS. ATTEMPT NUMBER  1, TIME INCREMENT  3.375E-02
 
	UNSYMMETRIC DIRECT SPARSE SOLVER RUNNING ON
 	1 HOST x 1 MPI RANK PER HOST x 10 THREADS PER RANK
        NUMBER OF EQUATIONS:  205488
        NUMBER OF RHS:        1
        NUMBER OF FLOPS:      9.047e+10
        SOLVER ELAPSED TIME:  506ms

               CONVERGENCE CHECKS FOR EQUILIBRIUM ITERATION     1

   MAX. PENETRATION ERROR 43.9631E-15  AT NODE CONCRETE-1.3242 OF CONTACT PAIR 
   (GENERAL_CONTACT_FACES_4,GENERAL_CONTACT_FACES_1)
   MAX. CONTACT FORCE ERROR -828.191E-12   AT NODE CONCRETE-1.38666 OF CONTACT 
   PAIR (GENERAL_CONTACT_FACES_4,GENERAL_CONTACT_FACES_1)
          THE CONTACT CONSTRAINTS HAVE CONVERGED.

 AVERAGE FORCE                      3.695E-02   TIME AVG. FORCE       1.680E-02
 LARGEST SCALED RESIDUAL FORCE      4.144E-10   AT NODE      66573   DOF  1
   INSTANCE: ANCHOR-1                                                                        
  CORRESPONDING RESIDUAL FORCE      4.144E-10
 LARGEST INCREMENT OF DISP.         5.625E-04   AT NODE          1   DOF  2
   INSTANCE: ANCHOR-1                                                                        
 LARGEST CORRECTION TO DISP.       -1.433E-06   AT NODE      10312   DOF  2
   INSTANCE: CONCRETE-1                                                                      
          THE FORCE     EQUILIBRIUM EQUATIONS HAVE CONVERGED
          TIME INCREMENT MAY NOW INCREASE TO    5.063E-02

 ITERATION SUMMARY FOR THE INCREMENT:   1 TOTAL ITERATIONS, OF WHICH
   0 ARE SEVERE DISCONTINUITY ITERATIONS AND  1 ARE EQUILIBRIUM ITERATIONS.

 TIME INCREMENT COMPLETED  3.375E-02,  FRACTION OF STEP COMPLETED  1.521E-03
 STEP TIME COMPLETED       9.125E-02,  TOTAL TIME COMPLETED        9.125E-02


  INCREMENT     6 STARTS. ATTEMPT NUMBER  1, TIME INCREMENT  5.063E-02
 
	UNSYMMETRIC DIRECT SPARSE SOLVER RUNNING ON
 	1 HOST x 1 MPI RANK PER HOST x 10 THREADS PER RANK
        NUMBER OF EQUATIONS:  205488
        NUMBER OF RHS:        1
        NUMBER OF FLOPS:      9.047e+10
        SOLVER ELAPSED TIME:  524ms

               CONVERGENCE CHECKS FOR EQUILIBRIUM ITERATION     1

   MAX. PENETRATION ERROR -46.6295E-15  AT NODE CONCRETE-1.10538 OF CONTACT 
   PAIR (GENERAL_CONTACT_FACES_4,GENERAL_CONTACT_FACES_1)
   MAX. CONTACT FORCE ERROR -919.025E-12   AT NODE CONCRETE-1.38667 OF CONTACT 
   PAIR (GENERAL_CONTACT_FACES_4,GENERAL_CONTACT_FACES_1)
          THE CONTACT CONSTRAINTS HAVE CONVERGED.

 AVERAGE FORCE                      5.725E-02   TIME AVG. FORCE       2.354E-02
 LARGEST SCALED RESIDUAL FORCE      3.033E-10   AT NODE      66737   DOF  2
   INSTANCE: ANCHOR-1                                                                        
  CORRESPONDING RESIDUAL FORCE      3.033E-10
 LARGEST INCREMENT OF DISP.         8.438E-04   AT NODE          1   DOF  2
   INSTANCE: ANCHOR-1                                                                        
 LARGEST CORRECTION TO DISP.        1.052E-06   AT NODE      10312   DOF  2
   INSTANCE: CONCRETE-1                                                                      
          THE FORCE     EQUILIBRIUM EQUATIONS HAVE CONVERGED
          TIME INCREMENT MAY NOW INCREASE TO    7.594E-02

 ITERATION SUMMARY FOR THE INCREMENT:   1 TOTAL ITERATIONS, OF WHICH
   0 ARE SEVERE DISCONTINUITY ITERATIONS AND  1 ARE EQUILIBRIUM ITERATIONS.

 TIME INCREMENT COMPLETED  5.063E-02,  FRACTION OF STEP COMPLETED  2.365E-03
 STEP TIME COMPLETED       0.142    ,  TOTAL TIME COMPLETED        0.142    


  INCREMENT     7 STARTS. ATTEMPT NUMBER  1, TIME INCREMENT  7.594E-02
 
	UNSYMMETRIC DIRECT SPARSE SOLVER RUNNING ON
 	1 HOST x 1 MPI RANK PER HOST x 10 THREADS PER RANK
        NUMBER OF EQUATIONS:  205488
        NUMBER OF RHS:        1
        NUMBER OF FLOPS:      9.047e+10
        SOLVER ELAPSED TIME:  513ms

               CONVERGENCE CHECKS FOR EQUILIBRIUM ITERATION     1

   MAX. PENETRATION ERROR 39.3545E-15  AT NODE CONCRETE-1.10503 OF CONTACT PAIR 
   (GENERAL_CONTACT_FACES_4,GENERAL_CONTACT_FACES_1)
   MAX. CONTACT FORCE ERROR 850.481E-12   AT NODE CONCRETE-1.38540 OF CONTACT 
   PAIR (GENERAL_CONTACT_FACES_3,GENERAL_CONTACT_FACES_2)
          THE CONTACT CONSTRAINTS HAVE CONVERGED.

 AVERAGE FORCE                      8.757E-02   TIME AVG. FORCE       3.269E-02
 LARGEST SCALED RESIDUAL FORCE      6.814E-10   AT NODE      66737   DOF  2
   INSTANCE: ANCHOR-1                                                                        
  CORRESPONDING RESIDUAL FORCE      6.814E-10
 LARGEST INCREMENT OF DISP.         1.266E-03   AT NODE          1   DOF  2
   INSTANCE: ANCHOR-1                                                                        
 LARGEST CORRECTION TO DISP.       -7.397E-07   AT NODE      10312   DOF  2
   INSTANCE: CONCRETE-1                                                                      
          THE FORCE     EQUILIBRIUM EQUATIONS HAVE CONVERGED
          TIME INCREMENT MAY NOW INCREASE TO    0.114    

 ITERATION SUMMARY FOR THE INCREMENT:   1 TOTAL ITERATIONS, OF WHICH
   0 ARE SEVERE DISCONTINUITY ITERATIONS AND  1 ARE EQUILIBRIUM ITERATIONS.

 TIME INCREMENT COMPLETED  7.594E-02,  FRACTION OF STEP COMPLETED  3.630E-03
 STEP TIME COMPLETED       0.218    ,  TOTAL TIME COMPLETED        0.218    


  INCREMENT     8 STARTS. ATTEMPT NUMBER  1, TIME INCREMENT  0.114    
 
	UNSYMMETRIC DIRECT SPARSE SOLVER RUNNING ON
 	1 HOST x 1 MPI RANK PER HOST x 10 THREADS PER RANK
        NUMBER OF EQUATIONS:  205488
        NUMBER OF RHS:        1
        NUMBER OF FLOPS:      9.047e+10
        SOLVER ELAPSED TIME:  517ms

               CONVERGENCE CHECKS FOR EQUILIBRIUM ITERATION     1

   MAX. PENETRATION ERROR 47.1377E-15  AT NODE CONCRETE-1.25310 OF CONTACT PAIR 
   (GENERAL_CONTACT_FACES_4,GENERAL_CONTACT_FACES_1)
   MAX. CONTACT FORCE ERROR 800.093E-12   AT NODE CONCRETE-1.38660 OF CONTACT 
   PAIR (GENERAL_CONTACT_FACES_4,GENERAL_CONTACT_FACES_1)
          THE CONTACT CONSTRAINTS HAVE CONVERGED.

 AVERAGE FORCE                      0.133       TIME AVG. FORCE       4.520E-02
 LARGEST SCALED RESIDUAL FORCE      1.535E-09   AT NODE      66737   DOF  2
   INSTANCE: ANCHOR-1                                                                        
  CORRESPONDING RESIDUAL FORCE      1.535E-09
 LARGEST INCREMENT OF DISP.         1.898E-03   AT NODE          1   DOF  2
   INSTANCE: ANCHOR-1                                                                        
 LARGEST CORRECTION TO DISP.        5.246E-07   AT NODE      10312   DOF  2
   INSTANCE: CONCRETE-1                                                                      
          THE FORCE     EQUILIBRIUM EQUATIONS HAVE CONVERGED
          TIME INCREMENT MAY NOW INCREASE TO    0.171    

 ITERATION SUMMARY FOR THE INCREMENT:   1 TOTAL ITERATIONS, OF WHICH
   0 ARE SEVERE DISCONTINUITY ITERATIONS AND  1 ARE EQUILIBRIUM ITERATIONS.

 TIME INCREMENT COMPLETED  0.114    ,  FRACTION OF STEP COMPLETED  5.529E-03
 STEP TIME COMPLETED       0.332    ,  TOTAL TIME COMPLETED        0.332    


  INCREMENT     9 STARTS. ATTEMPT NUMBER  1, TIME INCREMENT  0.171    
 
	UNSYMMETRIC DIRECT SPARSE SOLVER RUNNING ON
 	1 HOST x 1 MPI RANK PER HOST x 10 THREADS PER RANK
        NUMBER OF EQUATIONS:  205488
        NUMBER OF RHS:        1
        NUMBER OF FLOPS:      9.047e+10
        SOLVER ELAPSED TIME:  688ms

               CONVERGENCE CHECKS FOR EQUILIBRIUM ITERATION     1

   MAX. PENETRATION ERROR -45.2577E-15  AT NODE CONCRETE-1.38523 OF CONTACT 
   PAIR (GENERAL_CONTACT_FACES_3,GENERAL_CONTACT_FACES_2)
   MAX. CONTACT FORCE ERROR -1.18219E-09 AT NODE CONCRETE-1.38542 OF CONTACT 
   PAIR (GENERAL_CONTACT_FACES_3,GENERAL_CONTACT_FACES_2)
          THE CONTACT CONSTRAINTS HAVE CONVERGED.

 AVERAGE FORCE                      0.200       TIME AVG. FORCE       6.243E-02
 LARGEST SCALED RESIDUAL FORCE      3.448E-09   AT NODE      66737   DOF  2
   INSTANCE: ANCHOR-1                                                                        
  CORRESPONDING RESIDUAL FORCE      3.448E-09
 LARGEST INCREMENT OF DISP.         2.848E-03   AT NODE          1   DOF  2
   INSTANCE: ANCHOR-1                                                                        
 LARGEST CORRECTION TO DISP.       -3.534E-07   AT NODE      10355   DOF  2
   INSTANCE: CONCRETE-1                                                                      
          THE FORCE     EQUILIBRIUM EQUATIONS HAVE CONVERGED
          TIME INCREMENT MAY NOW INCREASE TO    0.256    

 ITERATION SUMMARY FOR THE INCREMENT:   1 TOTAL ITERATIONS, OF WHICH
   0 ARE SEVERE DISCONTINUITY ITERATIONS AND  1 ARE EQUILIBRIUM ITERATIONS.

 TIME INCREMENT COMPLETED  0.171    ,  FRACTION OF STEP COMPLETED  8.376E-03
 STEP TIME COMPLETED       0.503    ,  TOTAL TIME COMPLETED        0.503    


  INCREMENT    10 STARTS. ATTEMPT NUMBER  1, TIME INCREMENT  0.256    
 
	UNSYMMETRIC DIRECT SPARSE SOLVER RUNNING ON
 	1 HOST x 1 MPI RANK PER HOST x 10 THREADS PER RANK
        NUMBER OF EQUATIONS:  205488
        NUMBER OF RHS:        1
        NUMBER OF FLOPS:      9.047e+10
        SOLVER ELAPSED TIME:  553ms

                    2 SEVERE DISCONTINUITIES OCCURRED DURING THIS ITERATION.
                    2 POINTS CHANGED FROM OPEN TO CLOSED

               CONVERGENCE CHECKS FOR SEVERE DISCONTINUITY ITERATION     1

   MAX. PENETRATION ERROR 3.75305E-12 AT NODE ANCHOR-1.66559 OF CONTACT PAIR 
   (GENERAL_CONTACT_EDGES_1,GENERAL_CONTACT_FACES_4)
   MAX. CONTACT FORCE ERROR 319.479E-09   AT NODE ANCHOR-1.66559 OF CONTACT 
   PAIR (GENERAL_CONTACT_EDGES_1,GENERAL_CONTACT_FACES_4)
          THE CONTACT CONSTRAINT ERRORS ARE WITHIN THE TOLERANCES.

 AVERAGE FORCE                      0.301       TIME AVG. FORCE       8.633E-02
 LARGEST SCALED RESIDUAL FORCE      7.748E-09   AT NODE      66737   DOF  2
   INSTANCE: ANCHOR-1                                                                        
  CORRESPONDING RESIDUAL FORCE      7.748E-09
 LARGEST INCREMENT OF DISP.         4.271E-03   AT NODE          1   DOF  2
   INSTANCE: ANCHOR-1                                                                        
 LARGEST CORRECTION TO DISP.        2.823E-07   AT NODE      10312   DOF  2
   INSTANCE: CONCRETE-1                                                                      
          THE FORCE     EQUILIBRIUM EQUATIONS HAVE CONVERGED
          TIME INCREMENT MAY NOW INCREASE TO    0.384    

 ITERATION SUMMARY FOR THE INCREMENT:   1 TOTAL ITERATIONS, OF WHICH
   1 ARE SEVERE DISCONTINUITY ITERATIONS AND  0 ARE EQUILIBRIUM ITERATIONS.

 TIME INCREMENT COMPLETED  0.256    ,  FRACTION OF STEP COMPLETED  1.265E-02
 STEP TIME COMPLETED       0.759    ,  TOTAL TIME COMPLETED        0.759    


  INCREMENT    11 STARTS. ATTEMPT NUMBER  1, TIME INCREMENT  0.384    
 
	UNSYMMETRIC DIRECT SPARSE SOLVER RUNNING ON
 	1 HOST x 1 MPI RANK PER HOST x 10 THREADS PER RANK
        NUMBER OF EQUATIONS:  205488
        NUMBER OF RHS:        1
        NUMBER OF FLOPS:      9.515e+10
        SOLVER ELAPSED TIME:  585ms

                    4 SEVERE DISCONTINUITIES OCCURRED DURING THIS ITERATION.
                    4 POINTS CHANGED FROM OPEN TO CLOSED

               CONVERGENCE CHECKS FOR SEVERE DISCONTINUITY ITERATION     1

   MAX. PENETRATION ERROR 12.4947E-12  AT NODE ANCHOR-1.419 OF CONTACT PAIR 
   (GENERAL_CONTACT_EDGES_1,GENERAL_CONTACT_FACES_4)
   MAX. CONTACT FORCE ERROR 522.342E-09   AT NODE ANCHOR-1.419 OF CONTACT PAIR 
   (GENERAL_CONTACT_EDGES_1,GENERAL_CONTACT_FACES_4)
          THE CONTACT CONSTRAINT ERRORS ARE WITHIN THE TOLERANCES.

 AVERAGE FORCE                      0.452       TIME AVG. FORCE       0.120    
 LARGEST SCALED RESIDUAL FORCE      1.736E-08   AT NODE      66737   DOF  2
   INSTANCE: ANCHOR-1                                                                        
  CORRESPONDING RESIDUAL FORCE      1.736E-08
 LARGEST INCREMENT OF DISP.         6.407E-03   AT NODE          1   DOF  2
   INSTANCE: ANCHOR-1                                                                        
 LARGEST CORRECTION TO DISP.       -2.814E-07   AT NODE      38644   DOF  1
   INSTANCE: CONCRETE-1                                                                      
          THE FORCE     EQUILIBRIUM EQUATIONS HAVE CONVERGED
          TIME INCREMENT MAY NOW INCREASE TO    0.500    

 ITERATION SUMMARY FOR THE INCREMENT:   1 TOTAL ITERATIONS, OF WHICH
   1 ARE SEVERE DISCONTINUITY ITERATIONS AND  0 ARE EQUILIBRIUM ITERATIONS.

 TIME INCREMENT COMPLETED  0.384    ,  FRACTION OF STEP COMPLETED  1.906E-02
 STEP TIME COMPLETED        1.14    ,  TOTAL TIME COMPLETED         1.14    


  INCREMENT    12 STARTS. ATTEMPT NUMBER  1, TIME INCREMENT  0.500    
 
	UNSYMMETRIC DIRECT SPARSE SOLVER RUNNING ON
 	1 HOST x 1 MPI RANK PER HOST x 10 THREADS PER RANK
        NUMBER OF EQUATIONS:  205488
        NUMBER OF RHS:        1
        NUMBER OF FLOPS:      9.515e+10
        SOLVER ELAPSED TIME:  560ms

                    8 SEVERE DISCONTINUITIES OCCURRED DURING THIS ITERATION.
                    8 POINTS CHANGED FROM OPEN TO CLOSED

               CONVERGENCE CHECKS FOR SEVERE DISCONTINUITY ITERATION     1

   MAX. PENETRATION ERROR 25.0106E-12  AT NODE CONCRETE-1.1639 OF CONTACT PAIR 
   (GENERAL_CONTACT_EDGES_3,GENERAL_CONTACT_FACES_2)
   MAX. CONTACT FORCE ERROR 294.274E-09   AT NODE ANCHOR-1.474 OF CONTACT PAIR 
   (GENERAL_CONTACT_EDGES_2,GENERAL_CONTACT_FACES_3)
          THE CONTACT CONSTRAINT ERRORS ARE WITHIN THE TOLERANCES.

 AVERAGE FORCE                      0.649       TIME AVG. FORCE       0.164    
 LARGEST SCALED RESIDUAL FORCE     -6.594E-07   AT NODE      66585   DOF  1
   INSTANCE: ANCHOR-1                                                                        
  CORRESPONDING RESIDUAL FORCE     -6.594E-07
 LARGEST INCREMENT OF DISP.         8.333E-03   AT NODE          1   DOF  2
   INSTANCE: ANCHOR-1                                                                        
 LARGEST CORRECTION TO DISP.        1.018E-06   AT NODE        419   DOF  2
   INSTANCE: ANCHOR-1                                                                        
          THE FORCE     EQUILIBRIUM EQUATIONS HAVE CONVERGED

 ITERATION SUMMARY FOR THE INCREMENT:   1 TOTAL ITERATIONS, OF WHICH
   1 ARE SEVERE DISCONTINUITY ITERATIONS AND  0 ARE EQUILIBRIUM ITERATIONS.

 TIME INCREMENT COMPLETED  0.500    ,  FRACTION OF STEP COMPLETED  2.739E-02
 STEP TIME COMPLETED        1.64    ,  TOTAL TIME COMPLETED         1.64    


  INCREMENT    13 STARTS. ATTEMPT NUMBER  1, TIME INCREMENT  0.500    
 
	UNSYMMETRIC DIRECT SPARSE SOLVER RUNNING ON
 	1 HOST x 1 MPI RANK PER HOST x 10 THREADS PER RANK
        NUMBER OF EQUATIONS:  205488
        NUMBER OF RHS:        1
        NUMBER OF FLOPS:      9.515e+10
        SOLVER ELAPSED TIME:  537ms

                   16 SEVERE DISCONTINUITIES OCCURRED DURING THIS ITERATION.
                   16 POINTS CHANGED FROM OPEN TO CLOSED

               CONVERGENCE CHECKS FOR SEVERE DISCONTINUITY ITERATION     1

   MAX. PENETRATION ERROR 8.16072E-12 AT NODE CONCRETE-1.25246 OF CONTACT PAIR 
   (GENERAL_CONTACT_EDGES_3,GENERAL_CONTACT_FACES_2)
   MAX. CONTACT FORCE ERROR 189.966E-09   AT NODE CONCRETE-1.25246 OF CONTACT 
   PAIR (GENERAL_CONTACT_EDGES_3,GENERAL_CONTACT_FACES_2)
          THE CONTACT CONSTRAINT ERRORS ARE WITHIN THE TOLERANCES.

 AVERAGE FORCE                      0.847       TIME AVG. FORCE       0.216    
 LARGEST SCALED RESIDUAL FORCE     -2.836E-06   AT NODE      66722   DOF  1
   INSTANCE: ANCHOR-1                                                                        
  CORRESPONDING RESIDUAL FORCE     -2.836E-06
 LARGEST INCREMENT OF DISP.         8.333E-03   AT NODE          1   DOF  2
   INSTANCE: ANCHOR-1                                                                        
 LARGEST CORRECTION TO DISP.        1.672E-06   AT NODE        474   DOF  2
   INSTANCE: ANCHOR-1                                                                        
          THE FORCE     EQUILIBRIUM EQUATIONS HAVE CONVERGED

 ITERATION SUMMARY FOR THE INCREMENT:   1 TOTAL ITERATIONS, OF WHICH
   1 ARE SEVERE DISCONTINUITY ITERATIONS AND  0 ARE EQUILIBRIUM ITERATIONS.

 TIME INCREMENT COMPLETED  0.500    ,  FRACTION OF STEP COMPLETED  3.572E-02
 STEP TIME COMPLETED        2.14    ,  TOTAL TIME COMPLETED         2.14    


  INCREMENT    14 STARTS. ATTEMPT NUMBER  1, TIME INCREMENT  0.500    
 
	UNSYMMETRIC DIRECT SPARSE SOLVER RUNNING ON
 	1 HOST x 1 MPI RANK PER HOST x 10 THREADS PER RANK
        NUMBER OF EQUATIONS:  205488
        NUMBER OF RHS:        1
        NUMBER OF FLOPS:      9.515e+10
        SOLVER ELAPSED TIME:  548ms

               CONVERGENCE CHECKS FOR EQUILIBRIUM ITERATION     1

   MAX. PENETRATION ERROR -87.8637E-15  AT NODE CONCRETE-1.1646 OF CONTACT PAIR 
   (GENERAL_CONTACT_FACES_4,GENERAL_CONTACT_FACES_1)
   MAX. CONTACT FORCE ERROR 988.897E-12   AT NODE CONCRETE-1.38532 OF CONTACT 
   PAIR (GENERAL_CONTACT_FACES_3,GENERAL_CONTACT_FACES_2)
          THE CONTACT CONSTRAINTS HAVE CONVERGED.

 AVERAGE FORCE                       1.05       TIME AVG. FORCE       0.276    
 LARGEST SCALED RESIDUAL FORCE     -3.117E-07   AT NODE      66559   DOF  2
   INSTANCE: ANCHOR-1                                                                        
  CORRESPONDING RESIDUAL FORCE     -3.117E-07
 LARGEST INCREMENT OF DISP.         8.333E-03   AT NODE          1   DOF  2
   INSTANCE: ANCHOR-1                                                                        
 LARGEST CORRECTION TO DISP.        6.415E-07   AT NODE       1646   DOF  2
   INSTANCE: CONCRETE-1                                                                      
          THE FORCE     EQUILIBRIUM EQUATIONS HAVE CONVERGED

 ITERATION SUMMARY FOR THE INCREMENT:   1 TOTAL ITERATIONS, OF WHICH
   0 ARE SEVERE DISCONTINUITY ITERATIONS AND  1 ARE EQUILIBRIUM ITERATIONS.

 TIME INCREMENT COMPLETED  0.500    ,  FRACTION OF STEP COMPLETED  4.406E-02
 STEP TIME COMPLETED        2.64    ,  TOTAL TIME COMPLETED         2.64    


  INCREMENT    15 STARTS. ATTEMPT NUMBER  1, TIME INCREMENT  0.500    
 
	UNSYMMETRIC DIRECT SPARSE SOLVER RUNNING ON
 	1 HOST x 1 MPI RANK PER HOST x 10 THREADS PER RANK
        NUMBER OF EQUATIONS:  205488
        NUMBER OF RHS:        1
        NUMBER OF FLOPS:      9.515e+10
        SOLVER ELAPSED TIME:  551ms

               CONVERGENCE CHECKS FOR EQUILIBRIUM ITERATION     1

   MAX. PENETRATION ERROR 46.3132E-15  AT NODE CONCRETE-1.3242 OF CONTACT PAIR 
   (GENERAL_CONTACT_FACES_4,GENERAL_CONTACT_FACES_1)
   MAX. CONTACT FORCE ERROR -771.362E-12   AT NODE CONCRETE-1.38657 OF CONTACT 
   PAIR (GENERAL_CONTACT_FACES_4,GENERAL_CONTACT_FACES_1)
          THE CONTACT CONSTRAINTS HAVE CONVERGED.

 AVERAGE FORCE                       1.25       TIME AVG. FORCE       0.340    
 LARGEST SCALED RESIDUAL FORCE     -6.682E-08   AT NODE      38632   DOF  2
   INSTANCE: CONCRETE-1                                                                      
  CORRESPONDING RESIDUAL FORCE     -6.682E-08
 LARGEST INCREMENT OF DISP.         8.333E-03   AT NODE          1   DOF  2
   INSTANCE: ANCHOR-1                                                                        
 LARGEST CORRECTION TO DISP.        4.626E-07   AT NODE      38523   DOF  1
   INSTANCE: CONCRETE-1                                                                      
          THE FORCE     EQUILIBRIUM EQUATIONS HAVE CONVERGED

 ITERATION SUMMARY FOR THE INCREMENT:   1 TOTAL ITERATIONS, OF WHICH
   0 ARE SEVERE DISCONTINUITY ITERATIONS AND  1 ARE EQUILIBRIUM ITERATIONS.

 TIME INCREMENT COMPLETED  0.500    ,  FRACTION OF STEP COMPLETED  5.239E-02
 STEP TIME COMPLETED        3.14    ,  TOTAL TIME COMPLETED         3.14    


  INCREMENT    16 STARTS. ATTEMPT NUMBER  1, TIME INCREMENT  0.500    
 
	UNSYMMETRIC DIRECT SPARSE SOLVER RUNNING ON
 	1 HOST x 1 MPI RANK PER HOST x 10 THREADS PER RANK
        NUMBER OF EQUATIONS:  205488
        NUMBER OF RHS:        1
        NUMBER OF FLOPS:      9.515e+10
        SOLVER ELAPSED TIME:  542ms

               CONVERGENCE CHECKS FOR EQUILIBRIUM ITERATION     1

   MAX. PENETRATION ERROR 53.4144E-15  AT NODE CONCRETE-1.6496 OF CONTACT PAIR 
   (GENERAL_CONTACT_FACES_4,GENERAL_CONTACT_FACES_1)
   MAX. CONTACT FORCE ERROR 711.569E-12   AT NODE CONCRETE-1.38657 OF CONTACT 
   PAIR (GENERAL_CONTACT_FACES_4,GENERAL_CONTACT_FACES_1)
          THE CONTACT CONSTRAINTS HAVE CONVERGED.

 AVERAGE FORCE                       1.45       TIME AVG. FORCE       0.409    
 LARGEST SCALED RESIDUAL FORCE     -6.259E-08   AT NODE      66559   DOF  2
   INSTANCE: ANCHOR-1                                                                        
  CORRESPONDING RESIDUAL FORCE     -6.259E-08
 LARGEST INCREMENT OF DISP.         8.333E-03   AT NODE          1   DOF  2
   INSTANCE: ANCHOR-1                                                                        
 LARGEST CORRECTION TO DISP.        4.954E-07   AT NODE      38523   DOF  1
   INSTANCE: CONCRETE-1                                                                      
          THE FORCE     EQUILIBRIUM EQUATIONS HAVE CONVERGED

 ITERATION SUMMARY FOR THE INCREMENT:   1 TOTAL ITERATIONS, OF WHICH
   0 ARE SEVERE DISCONTINUITY ITERATIONS AND  1 ARE EQUILIBRIUM ITERATIONS.

 TIME INCREMENT COMPLETED  0.500    ,  FRACTION OF STEP COMPLETED  6.072E-02
 STEP TIME COMPLETED        3.64    ,  TOTAL TIME COMPLETED         3.64    


  INCREMENT    17 STARTS. ATTEMPT NUMBER  1, TIME INCREMENT  0.500    
 
	UNSYMMETRIC DIRECT SPARSE SOLVER RUNNING ON
 	1 HOST x 1 MPI RANK PER HOST x 10 THREADS PER RANK
        NUMBER OF EQUATIONS:  205488
        NUMBER OF RHS:        1
        NUMBER OF FLOPS:      9.515e+10
        SOLVER ELAPSED TIME:  536ms

               CONVERGENCE CHECKS FOR EQUILIBRIUM ITERATION     1

   MAX. PENETRATION ERROR -44.6183E-15  AT NODE CONCRETE-1.25232 OF CONTACT 
   PAIR (GENERAL_CONTACT_FACES_3,GENERAL_CONTACT_FACES_2)
   MAX. CONTACT FORCE ERROR 949.421E-12   AT NODE CONCRETE-1.38667 OF CONTACT 
   PAIR (GENERAL_CONTACT_FACES_4,GENERAL_CONTACT_FACES_1)
          THE CONTACT CONSTRAINTS HAVE CONVERGED.

 AVERAGE FORCE                       1.65       TIME AVG. FORCE       0.482    
 LARGEST SCALED RESIDUAL FORCE      3.464E-08   AT NODE      66737   DOF  2
   INSTANCE: ANCHOR-1                                                                        
  CORRESPONDING RESIDUAL FORCE      3.464E-08
 LARGEST INCREMENT OF DISP.         8.333E-03   AT NODE          1   DOF  2
   INSTANCE: ANCHOR-1                                                                        
 LARGEST CORRECTION TO DISP.        4.604E-07   AT NODE      38523   DOF  1
   INSTANCE: CONCRETE-1                                                                      
          THE FORCE     EQUILIBRIUM EQUATIONS HAVE CONVERGED

 ITERATION SUMMARY FOR THE INCREMENT:   1 TOTAL ITERATIONS, OF WHICH
   0 ARE SEVERE DISCONTINUITY ITERATIONS AND  1 ARE EQUILIBRIUM ITERATIONS.

 TIME INCREMENT COMPLETED  0.500    ,  FRACTION OF STEP COMPLETED  6.906E-02
 STEP TIME COMPLETED        4.14    ,  TOTAL TIME COMPLETED         4.14    


  INCREMENT    18 STARTS. ATTEMPT NUMBER  1, TIME INCREMENT  0.500    
 
	UNSYMMETRIC DIRECT SPARSE SOLVER RUNNING ON
 	1 HOST x 1 MPI RANK PER HOST x 10 THREADS PER RANK
        NUMBER OF EQUATIONS:  205488
        NUMBER OF RHS:        1
        NUMBER OF FLOPS:      9.515e+10
        SOLVER ELAPSED TIME:  550ms

               CONVERGENCE CHECKS FOR EQUILIBRIUM ITERATION     1

   MAX. PENETRATION ERROR -56.8117E-15  AT NODE CONCRETE-1.10595 OF CONTACT 
   PAIR (GENERAL_CONTACT_FACES_3,GENERAL_CONTACT_FACES_2)
   MAX. CONTACT FORCE ERROR 923.535E-12   AT NODE CONCRETE-1.38538 OF CONTACT 
   PAIR (GENERAL_CONTACT_FACES_3,GENERAL_CONTACT_FACES_2)
          THE CONTACT CONSTRAINTS HAVE CONVERGED.

 AVERAGE FORCE                       1.85       TIME AVG. FORCE       0.558    
 LARGEST SCALED RESIDUAL FORCE      3.455E-08   AT NODE      66737   DOF  2
   INSTANCE: ANCHOR-1                                                                        
  CORRESPONDING RESIDUAL FORCE      3.455E-08
 LARGEST INCREMENT OF DISP.         8.333E-03   AT NODE          1   DOF  2
   INSTANCE: ANCHOR-1                                                                        
 LARGEST CORRECTION TO DISP.        4.644E-07   AT NODE      38523   DOF  1
   INSTANCE: CONCRETE-1                                                                      
          THE FORCE     EQUILIBRIUM EQUATIONS HAVE CONVERGED

 ITERATION SUMMARY FOR THE INCREMENT:   1 TOTAL ITERATIONS, OF WHICH
   0 ARE SEVERE DISCONTINUITY ITERATIONS AND  1 ARE EQUILIBRIUM ITERATIONS.

 TIME INCREMENT COMPLETED  0.500    ,  FRACTION OF STEP COMPLETED  7.739E-02
 STEP TIME COMPLETED        4.64    ,  TOTAL TIME COMPLETED         4.64    


  INCREMENT    19 STARTS. ATTEMPT NUMBER  1, TIME INCREMENT  0.500    
 
	UNSYMMETRIC DIRECT SPARSE SOLVER RUNNING ON
 	1 HOST x 1 MPI RANK PER HOST x 10 THREADS PER RANK
        NUMBER OF EQUATIONS:  205488
        NUMBER OF RHS:        1
        NUMBER OF FLOPS:      9.515e+10
        SOLVER ELAPSED TIME:  552ms

               CONVERGENCE CHECKS FOR EQUILIBRIUM ITERATION     1

   MAX. PENETRATION ERROR 47.8277E-15  AT NODE CONCRETE-1.25239 OF CONTACT PAIR 
   (GENERAL_CONTACT_FACES_3,GENERAL_CONTACT_FACES_2)
   MAX. CONTACT FORCE ERROR -914.849E-12   AT NODE CONCRETE-1.38662 OF CONTACT 
   PAIR (GENERAL_CONTACT_FACES_4,GENERAL_CONTACT_FACES_1)
          THE CONTACT CONSTRAINTS HAVE CONVERGED.

 AVERAGE FORCE                       2.05       TIME AVG. FORCE       0.637    
 LARGEST SCALED RESIDUAL FORCE      3.452E-08   AT NODE      66737   DOF  2
   INSTANCE: ANCHOR-1                                                                        
  CORRESPONDING RESIDUAL FORCE      3.452E-08
 LARGEST INCREMENT OF DISP.         8.333E-03   AT NODE          1   DOF  2
   INSTANCE: ANCHOR-1                                                                        
 LARGEST CORRECTION TO DISP.        4.456E-07   AT NODE      38523   DOF  1
   INSTANCE: CONCRETE-1                                                                      
          THE FORCE     EQUILIBRIUM EQUATIONS HAVE CONVERGED

 ITERATION SUMMARY FOR THE INCREMENT:   1 TOTAL ITERATIONS, OF WHICH
   0 ARE SEVERE DISCONTINUITY ITERATIONS AND  1 ARE EQUILIBRIUM ITERATIONS.

 TIME INCREMENT COMPLETED  0.500    ,  FRACTION OF STEP COMPLETED  8.572E-02
 STEP TIME COMPLETED        5.14    ,  TOTAL TIME COMPLETED         5.14    


  INCREMENT    20 STARTS. ATTEMPT NUMBER  1, TIME INCREMENT  0.500    
 
	UNSYMMETRIC DIRECT SPARSE SOLVER RUNNING ON
 	1 HOST x 1 MPI RANK PER HOST x 10 THREADS PER RANK
        NUMBER OF EQUATIONS:  205488
        NUMBER OF RHS:        1
        NUMBER OF FLOPS:      9.515e+10
        SOLVER ELAPSED TIME:  677ms

                    4 SEVERE DISCONTINUITIES OCCURRED DURING THIS ITERATION.
                    4 POINTS CHANGED FROM OPEN TO CLOSED

               CONVERGENCE CHECKS FOR SEVERE DISCONTINUITY ITERATION     1

   MAX. PENETRATION ERROR 1.97614E-12 AT NODE ANCHOR-1.39 OF CONTACT PAIR 
   (GENERAL_CONTACT_EDGES_2,GENERAL_CONTACT_FACES_3)
   MAX. CONTACT FORCE ERROR 55.7760E-09  AT NODE ANCHOR-1.39 OF CONTACT PAIR 
   (GENERAL_CONTACT_EDGES_2,GENERAL_CONTACT_FACES_3)
          THE CONTACT CONSTRAINT ERRORS ARE WITHIN THE TOLERANCES.

 AVERAGE FORCE                       2.25       TIME AVG. FORCE       0.717    
 LARGEST SCALED RESIDUAL FORCE      3.444E-08   AT NODE      66737   DOF  2
   INSTANCE: ANCHOR-1                                                                        
  CORRESPONDING RESIDUAL FORCE      3.444E-08
 LARGEST INCREMENT OF DISP.         8.333E-03   AT NODE          1   DOF  2
   INSTANCE: ANCHOR-1                                                                        
 LARGEST CORRECTION TO DISP.        4.417E-07   AT NODE      10603   DOF  1
   INSTANCE: CONCRETE-1                                                                      
          THE FORCE     EQUILIBRIUM EQUATIONS HAVE CONVERGED

 ITERATION SUMMARY FOR THE INCREMENT:   1 TOTAL ITERATIONS, OF WHICH
   1 ARE SEVERE DISCONTINUITY ITERATIONS AND  0 ARE EQUILIBRIUM ITERATIONS.

 TIME INCREMENT COMPLETED  0.500    ,  FRACTION OF STEP COMPLETED  9.406E-02
 STEP TIME COMPLETED        5.64    ,  TOTAL TIME COMPLETED         5.64    


  INCREMENT    21 STARTS. ATTEMPT NUMBER  1, TIME INCREMENT  0.500    
 
	UNSYMMETRIC DIRECT SPARSE SOLVER RUNNING ON
 	1 HOST x 1 MPI RANK PER HOST x 10 THREADS PER RANK
        NUMBER OF EQUATIONS:  205488
        NUMBER OF RHS:        1
        NUMBER OF FLOPS:      9.515e+10
        SOLVER ELAPSED TIME:  591ms

                    2 SEVERE DISCONTINUITIES OCCURRED DURING THIS ITERATION.
                    2 POINTS CHANGED FROM OPEN TO CLOSED

               CONVERGENCE CHECKS FOR SEVERE DISCONTINUITY ITERATION     1

   MAX. PENETRATION ERROR 798.537E-15   AT NODE CONCRETE-1.4759 OF CONTACT PAIR 
   (GENERAL_CONTACT_EDGES_3,GENERAL_CONTACT_FACES_2)
   MAX. CONTACT FORCE ERROR 19.7229E-09  AT NODE CONCRETE-1.4759 OF CONTACT 
   PAIR (GENERAL_CONTACT_EDGES_3,GENERAL_CONTACT_FACES_2)
          THE CONTACT CONSTRAINT ERRORS ARE WITHIN THE TOLERANCES.

 AVERAGE FORCE                       2.45       TIME AVG. FORCE       0.800    
 LARGEST SCALED RESIDUAL FORCE      3.440E-08   AT NODE      66737   DOF  2
   INSTANCE: ANCHOR-1                                                                        
  CORRESPONDING RESIDUAL FORCE      3.440E-08
 LARGEST INCREMENT OF DISP.         8.333E-03   AT NODE          1   DOF  2
   INSTANCE: ANCHOR-1                                                                        
 LARGEST CORRECTION TO DISP.        4.291E-07   AT NODE      10603   DOF  1
   INSTANCE: CONCRETE-1                                                                      
          THE FORCE     EQUILIBRIUM EQUATIONS HAVE CONVERGED

 ITERATION SUMMARY FOR THE INCREMENT:   1 TOTAL ITERATIONS, OF WHICH
   1 ARE SEVERE DISCONTINUITY ITERATIONS AND  0 ARE EQUILIBRIUM ITERATIONS.

 TIME INCREMENT COMPLETED  0.500    ,  FRACTION OF STEP COMPLETED  0.102    
 STEP TIME COMPLETED        6.14    ,  TOTAL TIME COMPLETED         6.14    


  INCREMENT    22 STARTS. ATTEMPT NUMBER  1, TIME INCREMENT  0.500    
 
	UNSYMMETRIC DIRECT SPARSE SOLVER RUNNING ON
 	1 HOST x 1 MPI RANK PER HOST x 10 THREADS PER RANK
        NUMBER OF EQUATIONS:  205488
        NUMBER OF RHS:        1
        NUMBER OF FLOPS:      9.515e+10
        SOLVER ELAPSED TIME:  534ms

                    2 SEVERE DISCONTINUITIES OCCURRED DURING THIS ITERATION.
                    2 POINTS CHANGED FROM OPEN TO CLOSED

               CONVERGENCE CHECKS FOR SEVERE DISCONTINUITY ITERATION     1

   MAX. PENETRATION ERROR 1.00672E-12 AT NODE CONCRETE-1.10606 OF CONTACT PAIR 
   (GENERAL_CONTACT_EDGES_3,GENERAL_CONTACT_FACES_2)
   MAX. CONTACT FORCE ERROR 24.8648E-09  AT NODE CONCRETE-1.10606 OF CONTACT 
   PAIR (GENERAL_CONTACT_EDGES_3,GENERAL_CONTACT_FACES_2)
          THE CONTACT CONSTRAINT ERRORS ARE WITHIN THE TOLERANCES.

 AVERAGE FORCE                       2.65       TIME AVG. FORCE       0.884    
 LARGEST SCALED RESIDUAL FORCE      3.433E-08   AT NODE      66737   DOF  2
   INSTANCE: ANCHOR-1                                                                        
  CORRESPONDING RESIDUAL FORCE      3.433E-08
 LARGEST INCREMENT OF DISP.         8.333E-03   AT NODE          1   DOF  2
   INSTANCE: ANCHOR-1                                                                        
 LARGEST CORRECTION TO DISP.        4.225E-07   AT NODE      10603   DOF  1
   INSTANCE: CONCRETE-1                                                                      
          THE FORCE     EQUILIBRIUM EQUATIONS HAVE CONVERGED

 ITERATION SUMMARY FOR THE INCREMENT:   1 TOTAL ITERATIONS, OF WHICH
   1 ARE SEVERE DISCONTINUITY ITERATIONS AND  0 ARE EQUILIBRIUM ITERATIONS.

 TIME INCREMENT COMPLETED  0.500    ,  FRACTION OF STEP COMPLETED  0.111    
 STEP TIME COMPLETED        6.64    ,  TOTAL TIME COMPLETED         6.64    


  INCREMENT    23 STARTS. ATTEMPT NUMBER  1, TIME INCREMENT  0.500    
 
	UNSYMMETRIC DIRECT SPARSE SOLVER RUNNING ON
 	1 HOST x 1 MPI RANK PER HOST x 10 THREADS PER RANK
        NUMBER OF EQUATIONS:  205488
        NUMBER OF RHS:        1
        NUMBER OF FLOPS:      9.515e+10
        SOLVER ELAPSED TIME:  591ms

               CONVERGENCE CHECKS FOR EQUILIBRIUM ITERATION     1

   MAX. PENETRATION ERROR 36.9878E-15  AT NODE CONCRETE-1.10537 OF CONTACT PAIR 
   (GENERAL_CONTACT_FACES_4,GENERAL_CONTACT_FACES_1)
   MAX. CONTACT FORCE ERROR 859.503E-12   AT NODE CONCRETE-1.38543 OF CONTACT 
   PAIR (GENERAL_CONTACT_FACES_3,GENERAL_CONTACT_FACES_2)
          THE CONTACT CONSTRAINTS HAVE CONVERGED.

 AVERAGE FORCE                       2.85       TIME AVG. FORCE       0.970    
 LARGEST SCALED RESIDUAL FORCE      3.427E-08   AT NODE      66737   DOF  2
   INSTANCE: ANCHOR-1                                                                        
  CORRESPONDING RESIDUAL FORCE      3.427E-08
 LARGEST INCREMENT OF DISP.         8.333E-03   AT NODE          1   DOF  2
   INSTANCE: ANCHOR-1                                                                        
 LARGEST CORRECTION TO DISP.        4.127E-07   AT NODE      10603   DOF  1
   INSTANCE: CONCRETE-1                                                                      
          THE FORCE     EQUILIBRIUM EQUATIONS HAVE CONVERGED

 ITERATION SUMMARY FOR THE INCREMENT:   1 TOTAL ITERATIONS, OF WHICH
   0 ARE SEVERE DISCONTINUITY ITERATIONS AND  1 ARE EQUILIBRIUM ITERATIONS.

 TIME INCREMENT COMPLETED  0.500    ,  FRACTION OF STEP COMPLETED  0.119    
 STEP TIME COMPLETED        7.14    ,  TOTAL TIME COMPLETED         7.14    


  INCREMENT    24 STARTS. ATTEMPT NUMBER  1, TIME INCREMENT  0.500    
 
	UNSYMMETRIC DIRECT SPARSE SOLVER RUNNING ON
 	1 HOST x 1 MPI RANK PER HOST x 10 THREADS PER RANK
        NUMBER OF EQUATIONS:  205488
        NUMBER OF RHS:        1
        NUMBER OF FLOPS:      9.515e+10
        SOLVER ELAPSED TIME:  526ms

               CONVERGENCE CHECKS FOR EQUILIBRIUM ITERATION     1

   MAX. PENETRATION ERROR 43.3367E-15  AT NODE CONCRETE-1.38645 OF CONTACT PAIR 
   (GENERAL_CONTACT_FACES_4,GENERAL_CONTACT_FACES_1)
   MAX. CONTACT FORCE ERROR 748.641E-12   AT NODE CONCRETE-1.38669 OF CONTACT 
   PAIR (GENERAL_CONTACT_FACES_4,GENERAL_CONTACT_FACES_1)
          THE CONTACT CONSTRAINTS HAVE CONVERGED.

 AVERAGE FORCE                       3.06       TIME AVG. FORCE        1.06    
 LARGEST SCALED RESIDUAL FORCE      3.421E-08   AT NODE      66737   DOF  2
   INSTANCE: ANCHOR-1                                                                        
  CORRESPONDING RESIDUAL FORCE      3.421E-08
 LARGEST INCREMENT OF DISP.         8.333E-03   AT NODE          1   DOF  2
   INSTANCE: ANCHOR-1                                                                        
 LARGEST CORRECTION TO DISP.        4.055E-07   AT NODE      10603   DOF  1
   INSTANCE: CONCRETE-1                                                                      
          THE FORCE     EQUILIBRIUM EQUATIONS HAVE CONVERGED

 ITERATION SUMMARY FOR THE INCREMENT:   1 TOTAL ITERATIONS, OF WHICH
   0 ARE SEVERE DISCONTINUITY ITERATIONS AND  1 ARE EQUILIBRIUM ITERATIONS.

 TIME INCREMENT COMPLETED  0.500    ,  FRACTION OF STEP COMPLETED  0.127    
 STEP TIME COMPLETED        7.64    ,  TOTAL TIME COMPLETED         7.64    


  INCREMENT    25 STARTS. ATTEMPT NUMBER  1, TIME INCREMENT  0.500    
 
	UNSYMMETRIC DIRECT SPARSE SOLVER RUNNING ON
 	1 HOST x 1 MPI RANK PER HOST x 10 THREADS PER RANK
        NUMBER OF EQUATIONS:  205488
        NUMBER OF RHS:        1
        NUMBER OF FLOPS:      9.515e+10
        SOLVER ELAPSED TIME:  531ms

               CONVERGENCE CHECKS FOR EQUILIBRIUM ITERATION     1

   MAX. PENETRATION ERROR 52.4398E-15  AT NODE CONCRETE-1.1639 OF CONTACT PAIR 
   (GENERAL_CONTACT_FACES_3,GENERAL_CONTACT_FACES_2)
   MAX. CONTACT FORCE ERROR 577.687E-12   AT NODE CONCRETE-1.25239 OF CONTACT 
   PAIR (GENERAL_CONTACT_FACES_3,GENERAL_CONTACT_FACES_2)
          THE CONTACT CONSTRAINTS HAVE CONVERGED.

 AVERAGE FORCE                       3.26       TIME AVG. FORCE        1.14    
 LARGEST SCALED RESIDUAL FORCE      3.415E-08   AT NODE      66737   DOF  2
   INSTANCE: ANCHOR-1                                                                        
  CORRESPONDING RESIDUAL FORCE      3.415E-08
 LARGEST INCREMENT OF DISP.         8.333E-03   AT NODE          1   DOF  2
   INSTANCE: ANCHOR-1                                                                        
 LARGEST CORRECTION TO DISP.        3.970E-07   AT NODE      10603   DOF  1
   INSTANCE: CONCRETE-1                                                                      
          THE FORCE     EQUILIBRIUM EQUATIONS HAVE CONVERGED

 ITERATION SUMMARY FOR THE INCREMENT:   1 TOTAL ITERATIONS, OF WHICH
   0 ARE SEVERE DISCONTINUITY ITERATIONS AND  1 ARE EQUILIBRIUM ITERATIONS.

 TIME INCREMENT COMPLETED  0.500    ,  FRACTION OF STEP COMPLETED  0.136    
 STEP TIME COMPLETED        8.14    ,  TOTAL TIME COMPLETED         8.14    


  INCREMENT    26 STARTS. ATTEMPT NUMBER  1, TIME INCREMENT  0.500    
 
	UNSYMMETRIC DIRECT SPARSE SOLVER RUNNING ON
 	1 HOST x 1 MPI RANK PER HOST x 10 THREADS PER RANK
        NUMBER OF EQUATIONS:  205488
        NUMBER OF RHS:        1
        NUMBER OF FLOPS:      9.515e+10
        SOLVER ELAPSED TIME:  541ms

               CONVERGENCE CHECKS FOR EQUILIBRIUM ITERATION     1

   MAX. PENETRATION ERROR -54.8350E-15  AT NODE CONCRETE-1.38526 OF CONTACT 
   PAIR (GENERAL_CONTACT_FACES_3,GENERAL_CONTACT_FACES_2)
   MAX. CONTACT FORCE ERROR 976.564E-12   AT NODE CONCRETE-1.38659 OF CONTACT 
   PAIR (GENERAL_CONTACT_FACES_4,GENERAL_CONTACT_FACES_1)
          THE CONTACT CONSTRAINTS HAVE CONVERGED.

 AVERAGE FORCE                       3.46       TIME AVG. FORCE        1.23    
 LARGEST SCALED RESIDUAL FORCE      3.408E-08   AT NODE      66737   DOF  2
   INSTANCE: ANCHOR-1                                                                        
  CORRESPONDING RESIDUAL FORCE      3.408E-08
 LARGEST INCREMENT OF DISP.         8.333E-03   AT NODE          1   DOF  2
   INSTANCE: ANCHOR-1                                                                        
 LARGEST CORRECTION TO DISP.        3.898E-07   AT NODE      10603   DOF  1
   INSTANCE: CONCRETE-1                                                                      
          THE FORCE     EQUILIBRIUM EQUATIONS HAVE CONVERGED

 ITERATION SUMMARY FOR THE INCREMENT:   1 TOTAL ITERATIONS, OF WHICH
   0 ARE SEVERE DISCONTINUITY ITERATIONS AND  1 ARE EQUILIBRIUM ITERATIONS.

 TIME INCREMENT COMPLETED  0.500    ,  FRACTION OF STEP COMPLETED  0.144    
 STEP TIME COMPLETED        8.64    ,  TOTAL TIME COMPLETED         8.64    


  INCREMENT    27 STARTS. ATTEMPT NUMBER  1, TIME INCREMENT  0.500    
 
	UNSYMMETRIC DIRECT SPARSE SOLVER RUNNING ON
 	1 HOST x 1 MPI RANK PER HOST x 10 THREADS PER RANK
        NUMBER OF EQUATIONS:  205488
        NUMBER OF RHS:        1
        NUMBER OF FLOPS:      9.515e+10
        SOLVER ELAPSED TIME:  521ms

               CONVERGENCE CHECKS FOR EQUILIBRIUM ITERATION     1

   MAX. PENETRATION ERROR -46.2965E-15  AT NODE CONCRETE-1.10540 OF CONTACT 
   PAIR (GENERAL_CONTACT_FACES_4,GENERAL_CONTACT_FACES_1)
   MAX. CONTACT FORCE ERROR -884.937E-12   AT NODE CONCRETE-1.38531 OF CONTACT 
   PAIR (GENERAL_CONTACT_FACES_3,GENERAL_CONTACT_FACES_2)
          THE CONTACT CONSTRAINTS HAVE CONVERGED.

 AVERAGE FORCE                       3.66       TIME AVG. FORCE        1.32    
 LARGEST SCALED RESIDUAL FORCE      3.402E-08   AT NODE      66737   DOF  2
   INSTANCE: ANCHOR-1                                                                        
  CORRESPONDING RESIDUAL FORCE      3.402E-08
 LARGEST INCREMENT OF DISP.         8.333E-03   AT NODE          1   DOF  2
   INSTANCE: ANCHOR-1                                                                        
 LARGEST CORRECTION TO DISP.        3.823E-07   AT NODE      10603   DOF  1
   INSTANCE: CONCRETE-1                                                                      
          THE FORCE     EQUILIBRIUM EQUATIONS HAVE CONVERGED

 ITERATION SUMMARY FOR THE INCREMENT:   1 TOTAL ITERATIONS, OF WHICH
   0 ARE SEVERE DISCONTINUITY ITERATIONS AND  1 ARE EQUILIBRIUM ITERATIONS.

 TIME INCREMENT COMPLETED  0.500    ,  FRACTION OF STEP COMPLETED  0.152    
 STEP TIME COMPLETED        9.14    ,  TOTAL TIME COMPLETED         9.14    


  INCREMENT    28 STARTS. ATTEMPT NUMBER  1, TIME INCREMENT  0.500    
 
	UNSYMMETRIC DIRECT SPARSE SOLVER RUNNING ON
 	1 HOST x 1 MPI RANK PER HOST x 10 THREADS PER RANK
        NUMBER OF EQUATIONS:  205488
        NUMBER OF RHS:        1
        NUMBER OF FLOPS:      9.515e+10
        SOLVER ELAPSED TIME:  548ms

               CONVERGENCE CHECKS FOR EQUILIBRIUM ITERATION     1

   MAX. PENETRATION ERROR 45.0352E-15  AT NODE CONCRETE-1.10593 OF CONTACT PAIR 
   (GENERAL_CONTACT_FACES_3,GENERAL_CONTACT_FACES_2)
   MAX. CONTACT FORCE ERROR 849.900E-12   AT NODE CONCRETE-1.38668 OF CONTACT 
   PAIR (GENERAL_CONTACT_FACES_4,GENERAL_CONTACT_FACES_1)
          THE CONTACT CONSTRAINTS HAVE CONVERGED.

 AVERAGE FORCE                       3.86       TIME AVG. FORCE        1.41    
 LARGEST SCALED RESIDUAL FORCE      3.395E-08   AT NODE      66737   DOF  2
   INSTANCE: ANCHOR-1                                                                        
  CORRESPONDING RESIDUAL FORCE      3.395E-08
 LARGEST INCREMENT OF DISP.         8.333E-03   AT NODE          1   DOF  2
   INSTANCE: ANCHOR-1                                                                        
 LARGEST CORRECTION TO DISP.        3.753E-07   AT NODE      10603   DOF  1
   INSTANCE: CONCRETE-1                                                                      
          THE FORCE     EQUILIBRIUM EQUATIONS HAVE CONVERGED

 ITERATION SUMMARY FOR THE INCREMENT:   1 TOTAL ITERATIONS, OF WHICH
   0 ARE SEVERE DISCONTINUITY ITERATIONS AND  1 ARE EQUILIBRIUM ITERATIONS.

 TIME INCREMENT COMPLETED  0.500    ,  FRACTION OF STEP COMPLETED  0.161    
 STEP TIME COMPLETED        9.64    ,  TOTAL TIME COMPLETED         9.64    


  INCREMENT    29 STARTS. ATTEMPT NUMBER  1, TIME INCREMENT  0.500    
 
	UNSYMMETRIC DIRECT SPARSE SOLVER RUNNING ON
 	1 HOST x 1 MPI RANK PER HOST x 10 THREADS PER RANK
        NUMBER OF EQUATIONS:  205488
        NUMBER OF RHS:        1
        NUMBER OF FLOPS:      9.515e+10
        SOLVER ELAPSED TIME:  571ms

               CONVERGENCE CHECKS FOR EQUILIBRIUM ITERATION     1

   MAX. PENETRATION ERROR 44.4120E-15  AT NODE CONCRETE-1.38652 OF CONTACT PAIR 
   (GENERAL_CONTACT_FACES_4,GENERAL_CONTACT_FACES_1)
   MAX. CONTACT FORCE ERROR 901.267E-12   AT NODE CONCRETE-1.38542 OF CONTACT 
   PAIR (GENERAL_CONTACT_FACES_3,GENERAL_CONTACT_FACES_2)
          THE CONTACT CONSTRAINTS HAVE CONVERGED.

 AVERAGE FORCE                       4.06       TIME AVG. FORCE        1.51    
 LARGEST SCALED RESIDUAL FORCE      3.389E-08   AT NODE      66737   DOF  2
   INSTANCE: ANCHOR-1                                                                        
  CORRESPONDING RESIDUAL FORCE      3.389E-08
 LARGEST INCREMENT OF DISP.         8.333E-03   AT NODE          1   DOF  2
   INSTANCE: ANCHOR-1                                                                        
 LARGEST CORRECTION TO DISP.        3.684E-07   AT NODE      10603   DOF  1
   INSTANCE: CONCRETE-1                                                                      
          THE FORCE     EQUILIBRIUM EQUATIONS HAVE CONVERGED

 ITERATION SUMMARY FOR THE INCREMENT:   1 TOTAL ITERATIONS, OF WHICH
   0 ARE SEVERE DISCONTINUITY ITERATIONS AND  1 ARE EQUILIBRIUM ITERATIONS.

 TIME INCREMENT COMPLETED  0.500    ,  FRACTION OF STEP COMPLETED  0.169    
 STEP TIME COMPLETED        10.1    ,  TOTAL TIME COMPLETED         10.1    


  INCREMENT    30 STARTS. ATTEMPT NUMBER  1, TIME INCREMENT  0.500    
 
	UNSYMMETRIC DIRECT SPARSE SOLVER RUNNING ON
 	1 HOST x 1 MPI RANK PER HOST x 10 THREADS PER RANK
        NUMBER OF EQUATIONS:  205488
        NUMBER OF RHS:        1
        NUMBER OF FLOPS:      9.515e+10
        SOLVER ELAPSED TIME:  536ms

               CONVERGENCE CHECKS FOR EQUILIBRIUM ITERATION     1

   MAX. PENETRATION ERROR 53.3800E-15  AT NODE CONCRETE-1.10537 OF CONTACT PAIR 
   (GENERAL_CONTACT_FACES_4,GENERAL_CONTACT_FACES_1)
   MAX. CONTACT FORCE ERROR 1.16379E-09 AT NODE CONCRETE-1.38543 OF CONTACT 
   PAIR (GENERAL_CONTACT_FACES_3,GENERAL_CONTACT_FACES_2)
          THE CONTACT CONSTRAINTS HAVE CONVERGED.

 AVERAGE FORCE                       4.26       TIME AVG. FORCE        1.60    
 LARGEST SCALED RESIDUAL FORCE      3.382E-08   AT NODE      66737   DOF  2
   INSTANCE: ANCHOR-1                                                                        
  CORRESPONDING RESIDUAL FORCE      3.382E-08
 LARGEST INCREMENT OF DISP.         8.333E-03   AT NODE          1   DOF  2
   INSTANCE: ANCHOR-1                                                                        
 LARGEST CORRECTION TO DISP.        3.618E-07   AT NODE      10603   DOF  1
   INSTANCE: CONCRETE-1                                                                      
          THE FORCE     EQUILIBRIUM EQUATIONS HAVE CONVERGED

 ITERATION SUMMARY FOR THE INCREMENT:   1 TOTAL ITERATIONS, OF WHICH
   0 ARE SEVERE DISCONTINUITY ITERATIONS AND  1 ARE EQUILIBRIUM ITERATIONS.

 TIME INCREMENT COMPLETED  0.500    ,  FRACTION OF STEP COMPLETED  0.177    
 STEP TIME COMPLETED        10.6    ,  TOTAL TIME COMPLETED         10.6    


  INCREMENT    31 STARTS. ATTEMPT NUMBER  1, TIME INCREMENT  0.500    
 
	UNSYMMETRIC DIRECT SPARSE SOLVER RUNNING ON
 	1 HOST x 1 MPI RANK PER HOST x 10 THREADS PER RANK
        NUMBER OF EQUATIONS:  205488
        NUMBER OF RHS:        1
        NUMBER OF FLOPS:      9.515e+10
        SOLVER ELAPSED TIME:  583ms

               CONVERGENCE CHECKS FOR EQUILIBRIUM ITERATION     1

   MAX. PENETRATION ERROR 38.2973E-15  AT NODE CONCRETE-1.38512 OF CONTACT PAIR 
   (GENERAL_CONTACT_FACES_3,GENERAL_CONTACT_FACES_2)
   MAX. CONTACT FORCE ERROR 815.825E-12   AT NODE CONCRETE-1.38660 OF CONTACT 
   PAIR (GENERAL_CONTACT_FACES_4,GENERAL_CONTACT_FACES_1)
          THE CONTACT CONSTRAINTS HAVE CONVERGED.

 AVERAGE FORCE                       4.47       TIME AVG. FORCE        1.69    
 LARGEST SCALED RESIDUAL FORCE      3.376E-08   AT NODE      66737   DOF  2
   INSTANCE: ANCHOR-1                                                                        
  CORRESPONDING RESIDUAL FORCE      3.376E-08
 LARGEST INCREMENT OF DISP.         8.333E-03   AT NODE          1   DOF  2
   INSTANCE: ANCHOR-1                                                                        
 LARGEST CORRECTION TO DISP.        3.553E-07   AT NODE      10603   DOF  1
   INSTANCE: CONCRETE-1                                                                      
          THE FORCE     EQUILIBRIUM EQUATIONS HAVE CONVERGED

 ITERATION SUMMARY FOR THE INCREMENT:   1 TOTAL ITERATIONS, OF WHICH
   0 ARE SEVERE DISCONTINUITY ITERATIONS AND  1 ARE EQUILIBRIUM ITERATIONS.

 TIME INCREMENT COMPLETED  0.500    ,  FRACTION OF STEP COMPLETED  0.186    
 STEP TIME COMPLETED        11.1    ,  TOTAL TIME COMPLETED         11.1    


  INCREMENT    32 STARTS. ATTEMPT NUMBER  1, TIME INCREMENT  0.500    
 
	UNSYMMETRIC DIRECT SPARSE SOLVER RUNNING ON
 	1 HOST x 1 MPI RANK PER HOST x 10 THREADS PER RANK
        NUMBER OF EQUATIONS:  205488
        NUMBER OF RHS:        1
        NUMBER OF FLOPS:      9.515e+10
        SOLVER ELAPSED TIME:  582ms

               CONVERGENCE CHECKS FOR EQUILIBRIUM ITERATION     1

   MAX. PENETRATION ERROR 45.5566E-15  AT NODE CONCRETE-1.25301 OF CONTACT PAIR 
   (GENERAL_CONTACT_FACES_4,GENERAL_CONTACT_FACES_1)
   MAX. CONTACT FORCE ERROR 752.296E-12   AT NODE CONCRETE-1.38668 OF CONTACT 
   PAIR (GENERAL_CONTACT_FACES_4,GENERAL_CONTACT_FACES_1)
          THE CONTACT CONSTRAINTS HAVE CONVERGED.

 AVERAGE FORCE                       4.67       TIME AVG. FORCE        1.78    
 LARGEST SCALED RESIDUAL FORCE      3.369E-08   AT NODE      66737   DOF  2
   INSTANCE: ANCHOR-1                                                                        
  CORRESPONDING RESIDUAL FORCE      3.369E-08
 LARGEST INCREMENT OF DISP.         8.333E-03   AT NODE          1   DOF  2
   INSTANCE: ANCHOR-1                                                                        
 LARGEST CORRECTION TO DISP.        3.491E-07   AT NODE      10603   DOF  1
   INSTANCE: CONCRETE-1                                                                      
          THE FORCE     EQUILIBRIUM EQUATIONS HAVE CONVERGED

 ITERATION SUMMARY FOR THE INCREMENT:   1 TOTAL ITERATIONS, OF WHICH
   0 ARE SEVERE DISCONTINUITY ITERATIONS AND  1 ARE EQUILIBRIUM ITERATIONS.

 TIME INCREMENT COMPLETED  0.500    ,  FRACTION OF STEP COMPLETED  0.194    
 STEP TIME COMPLETED        11.6    ,  TOTAL TIME COMPLETED         11.6    


  INCREMENT    33 STARTS. ATTEMPT NUMBER  1, TIME INCREMENT  0.500    
 
	UNSYMMETRIC DIRECT SPARSE SOLVER RUNNING ON
 	1 HOST x 1 MPI RANK PER HOST x 10 THREADS PER RANK
        NUMBER OF EQUATIONS:  205488
        NUMBER OF RHS:        1
        NUMBER OF FLOPS:      9.515e+10
        SOLVER ELAPSED TIME:  578ms

               CONVERGENCE CHECKS FOR EQUILIBRIUM ITERATION     1

   MAX. PENETRATION ERROR 59.1537E-15  AT NODE CONCRETE-1.25244 OF CONTACT PAIR 
   (GENERAL_CONTACT_FACES_3,GENERAL_CONTACT_FACES_2)
   MAX. CONTACT FORCE ERROR 835.728E-12   AT NODE CONCRETE-1.38666 OF CONTACT 
   PAIR (GENERAL_CONTACT_FACES_4,GENERAL_CONTACT_FACES_1)
          THE CONTACT CONSTRAINTS HAVE CONVERGED.

 AVERAGE FORCE                       4.87       TIME AVG. FORCE        1.88    
 LARGEST SCALED RESIDUAL FORCE      3.362E-08   AT NODE      66737   DOF  2
   INSTANCE: ANCHOR-1                                                                        
  CORRESPONDING RESIDUAL FORCE      3.362E-08
 LARGEST INCREMENT OF DISP.         8.333E-03   AT NODE          1   DOF  2
   INSTANCE: ANCHOR-1                                                                        
 LARGEST CORRECTION TO DISP.        3.431E-07   AT NODE      10603   DOF  1
   INSTANCE: CONCRETE-1                                                                      
          THE FORCE     EQUILIBRIUM EQUATIONS HAVE CONVERGED

 ITERATION SUMMARY FOR THE INCREMENT:   1 TOTAL ITERATIONS, OF WHICH
   0 ARE SEVERE DISCONTINUITY ITERATIONS AND  1 ARE EQUILIBRIUM ITERATIONS.

 TIME INCREMENT COMPLETED  0.500    ,  FRACTION OF STEP COMPLETED  0.202    
 STEP TIME COMPLETED        12.1    ,  TOTAL TIME COMPLETED         12.1    


  INCREMENT    34 STARTS. ATTEMPT NUMBER  1, TIME INCREMENT  0.500    
 
	UNSYMMETRIC DIRECT SPARSE SOLVER RUNNING ON
 	1 HOST x 1 MPI RANK PER HOST x 10 THREADS PER RANK
        NUMBER OF EQUATIONS:  205488
        NUMBER OF RHS:        1
        NUMBER OF FLOPS:      9.515e+10
        SOLVER ELAPSED TIME:  549ms

               CONVERGENCE CHECKS FOR EQUILIBRIUM ITERATION     1

   MAX. PENETRATION ERROR -55.8677E-15  AT NODE CONCRETE-1.38518 OF CONTACT 
   PAIR (GENERAL_CONTACT_FACES_3,GENERAL_CONTACT_FACES_2)
   MAX. CONTACT FORCE ERROR 776.115E-12   AT NODE CONCRETE-1.38543 OF CONTACT 
   PAIR (GENERAL_CONTACT_FACES_3,GENERAL_CONTACT_FACES_2)
          THE CONTACT CONSTRAINTS HAVE CONVERGED.

 AVERAGE FORCE                       5.07       TIME AVG. FORCE        1.97    
 LARGEST SCALED RESIDUAL FORCE      3.356E-08   AT NODE      66737   DOF  2
   INSTANCE: ANCHOR-1                                                                        
  CORRESPONDING RESIDUAL FORCE      3.356E-08
 LARGEST INCREMENT OF DISP.         8.333E-03   AT NODE          1   DOF  2
   INSTANCE: ANCHOR-1                                                                        
 LARGEST CORRECTION TO DISP.        3.373E-07   AT NODE      10603   DOF  1
   INSTANCE: CONCRETE-1                                                                      
          THE FORCE     EQUILIBRIUM EQUATIONS HAVE CONVERGED

 ITERATION SUMMARY FOR THE INCREMENT:   1 TOTAL ITERATIONS, OF WHICH
   0 ARE SEVERE DISCONTINUITY ITERATIONS AND  1 ARE EQUILIBRIUM ITERATIONS.

 TIME INCREMENT COMPLETED  0.500    ,  FRACTION OF STEP COMPLETED  0.211    
 STEP TIME COMPLETED        12.6    ,  TOTAL TIME COMPLETED         12.6    


  INCREMENT    35 STARTS. ATTEMPT NUMBER  1, TIME INCREMENT  0.500    
 
	UNSYMMETRIC DIRECT SPARSE SOLVER RUNNING ON
 	1 HOST x 1 MPI RANK PER HOST x 10 THREADS PER RANK
        NUMBER OF EQUATIONS:  205488
        NUMBER OF RHS:        1
        NUMBER OF FLOPS:      9.515e+10
        SOLVER ELAPSED TIME:  559ms

               CONVERGENCE CHECKS FOR EQUILIBRIUM ITERATION     1

   MAX. PENETRATION ERROR -47.5468E-15  AT NODE CONCRETE-1.10594 OF CONTACT 
   PAIR (GENERAL_CONTACT_FACES_3,GENERAL_CONTACT_FACES_2)
   MAX. CONTACT FORCE ERROR 566.467E-12   AT NODE CONCRETE-1.38666 OF CONTACT 
   PAIR (GENERAL_CONTACT_FACES_4,GENERAL_CONTACT_FACES_1)
          THE CONTACT CONSTRAINTS HAVE CONVERGED.

 AVERAGE FORCE                       5.27       TIME AVG. FORCE        2.07    
 LARGEST SCALED RESIDUAL FORCE      3.349E-08   AT NODE      66737   DOF  2
   INSTANCE: ANCHOR-1                                                                        
  CORRESPONDING RESIDUAL FORCE      3.349E-08
 LARGEST INCREMENT OF DISP.         8.333E-03   AT NODE          1   DOF  2
   INSTANCE: ANCHOR-1                                                                        
 LARGEST CORRECTION TO DISP.        3.316E-07   AT NODE      10603   DOF  1
   INSTANCE: CONCRETE-1                                                                      
          THE FORCE     EQUILIBRIUM EQUATIONS HAVE CONVERGED

 ITERATION SUMMARY FOR THE INCREMENT:   1 TOTAL ITERATIONS, OF WHICH
   0 ARE SEVERE DISCONTINUITY ITERATIONS AND  1 ARE EQUILIBRIUM ITERATIONS.

 TIME INCREMENT COMPLETED  0.500    ,  FRACTION OF STEP COMPLETED  0.219    
 STEP TIME COMPLETED        13.1    ,  TOTAL TIME COMPLETED         13.1    


  INCREMENT    36 STARTS. ATTEMPT NUMBER  1, TIME INCREMENT  0.500    
 
	UNSYMMETRIC DIRECT SPARSE SOLVER RUNNING ON
 	1 HOST x 1 MPI RANK PER HOST x 10 THREADS PER RANK
        NUMBER OF EQUATIONS:  205488
        NUMBER OF RHS:        1
        NUMBER OF FLOPS:      9.515e+10
        SOLVER ELAPSED TIME:  570ms

               CONVERGENCE CHECKS FOR EQUILIBRIUM ITERATION     1

   MAX. PENETRATION ERROR 53.9074E-15  AT NODE CONCRETE-1.10593 OF CONTACT PAIR 
   (GENERAL_CONTACT_FACES_3,GENERAL_CONTACT_FACES_2)
   MAX. CONTACT FORCE ERROR 850.783E-12   AT NODE CONCRETE-1.38530 OF CONTACT 
   PAIR (GENERAL_CONTACT_FACES_3,GENERAL_CONTACT_FACES_2)
          THE CONTACT CONSTRAINTS HAVE CONVERGED.

 AVERAGE FORCE                       5.47       TIME AVG. FORCE        2.16    
 LARGEST SCALED RESIDUAL FORCE      3.342E-08   AT NODE      66737   DOF  2
   INSTANCE: ANCHOR-1                                                                        
  CORRESPONDING RESIDUAL FORCE      3.342E-08
 LARGEST INCREMENT OF DISP.         8.333E-03   AT NODE          1   DOF  2
   INSTANCE: ANCHOR-1                                                                        
 LARGEST CORRECTION TO DISP.        3.261E-07   AT NODE      10603   DOF  1
   INSTANCE: CONCRETE-1                                                                      
          THE FORCE     EQUILIBRIUM EQUATIONS HAVE CONVERGED

 ITERATION SUMMARY FOR THE INCREMENT:   1 TOTAL ITERATIONS, OF WHICH
   0 ARE SEVERE DISCONTINUITY ITERATIONS AND  1 ARE EQUILIBRIUM ITERATIONS.

 TIME INCREMENT COMPLETED  0.500    ,  FRACTION OF STEP COMPLETED  0.227    
 STEP TIME COMPLETED        13.6    ,  TOTAL TIME COMPLETED         13.6    


  INCREMENT    37 STARTS. ATTEMPT NUMBER  1, TIME INCREMENT  0.500    
 
	UNSYMMETRIC DIRECT SPARSE SOLVER RUNNING ON
 	1 HOST x 1 MPI RANK PER HOST x 10 THREADS PER RANK
        NUMBER OF EQUATIONS:  205488
        NUMBER OF RHS:        1
        NUMBER OF FLOPS:      9.515e+10
        SOLVER ELAPSED TIME:  511ms

                    2 SEVERE DISCONTINUITIES OCCURRED DURING THIS ITERATION.
                    2 POINTS CHANGED FROM OPEN TO CLOSED

               CONVERGENCE CHECKS FOR SEVERE DISCONTINUITY ITERATION     1

   MAX. PENETRATION ERROR 16.2595E-12  AT NODE CONCRETE-1.10503 OF CONTACT PAIR 
   (GENERAL_CONTACT_EDGES_4,GENERAL_CONTACT_FACES_1)
[...]
 STEP TIME COMPLETED        54.6    ,  TOTAL TIME COMPLETED         54.6    


  INCREMENT   119 STARTS. ATTEMPT NUMBER  1, TIME INCREMENT  0.500    
 
	UNSYMMETRIC DIRECT SPARSE SOLVER RUNNING ON
 	1 HOST x 1 MPI RANK PER HOST x 10 THREADS PER RANK
        NUMBER OF EQUATIONS:  205488
        NUMBER OF RHS:        1
        NUMBER OF FLOPS:      9.521e+10
        SOLVER ELAPSED TIME:  567ms

               CONVERGENCE CHECKS FOR EQUILIBRIUM ITERATION     1

   MAX. PENETRATION ERROR -380.169E-15   AT NODE ANCHOR-1.419 OF CONTACT PAIR 
   (GENERAL_CONTACT_EDGES_1,GENERAL_CONTACT_FACES_4)
   MAX. CONTACT FORCE ERROR -4.96878E-09 AT NODE ANCHOR-1.419 OF CONTACT PAIR 
   (GENERAL_CONTACT_EDGES_1,GENERAL_CONTACT_FACES_4)
          THE CONTACT CONSTRAINTS HAVE CONVERGED.

 AVERAGE FORCE                       22.2       TIME AVG. FORCE        10.4    
 LARGEST SCALED RESIDUAL FORCE     -3.741E-07   AT NODE       1639   DOF  2
   INSTANCE: CONCRETE-1                                                                      
  CORRESPONDING RESIDUAL FORCE     -3.741E-07
 LARGEST INCREMENT OF DISP.         8.333E-03   AT NODE          1   DOF  2
   INSTANCE: ANCHOR-1                                                                        
 LARGEST CORRECTION TO DISP.        1.957E-07   AT NODE       1647   DOF  1
   INSTANCE: CONCRETE-1                                                                      
          THE FORCE     EQUILIBRIUM EQUATIONS HAVE CONVERGED

 ITERATION SUMMARY FOR THE INCREMENT:   1 TOTAL ITERATIONS, OF WHICH
   0 ARE SEVERE DISCONTINUITY ITERATIONS AND  1 ARE EQUILIBRIUM ITERATIONS.

 TIME INCREMENT COMPLETED  0.500    ,  FRACTION OF STEP COMPLETED  0.919    
 STEP TIME COMPLETED        55.1    ,  TOTAL TIME COMPLETED         55.1    


  INCREMENT   120 STARTS. ATTEMPT NUMBER  1, TIME INCREMENT  0.500    
 
	UNSYMMETRIC DIRECT SPARSE SOLVER RUNNING ON
 	1 HOST x 1 MPI RANK PER HOST x 10 THREADS PER RANK
        NUMBER OF EQUATIONS:  205488
        NUMBER OF RHS:        1
        NUMBER OF FLOPS:      9.521e+10
        SOLVER ELAPSED TIME:  597ms

               CONVERGENCE CHECKS FOR EQUILIBRIUM ITERATION     1

   MAX. PENETRATION ERROR -385.315E-15   AT NODE ANCHOR-1.419 OF CONTACT PAIR 
   (GENERAL_CONTACT_EDGES_1,GENERAL_CONTACT_FACES_4)
   MAX. CONTACT FORCE ERROR -5.03606E-09 AT NODE ANCHOR-1.419 OF CONTACT PAIR 
   (GENERAL_CONTACT_EDGES_1,GENERAL_CONTACT_FACES_4)
          THE CONTACT CONSTRAINTS HAVE CONVERGED.

 AVERAGE FORCE                       22.4       TIME AVG. FORCE        10.5    
 LARGEST SCALED RESIDUAL FORCE     -3.797E-07   AT NODE       1639   DOF  2
   INSTANCE: CONCRETE-1                                                                      
  CORRESPONDING RESIDUAL FORCE     -3.797E-07
 LARGEST INCREMENT OF DISP.         8.333E-03   AT NODE          1   DOF  2
   INSTANCE: ANCHOR-1                                                                        
 LARGEST CORRECTION TO DISP.        1.946E-07   AT NODE       1647   DOF  1
   INSTANCE: CONCRETE-1                                                                      
          THE FORCE     EQUILIBRIUM EQUATIONS HAVE CONVERGED

 ITERATION SUMMARY FOR THE INCREMENT:   1 TOTAL ITERATIONS, OF WHICH
   0 ARE SEVERE DISCONTINUITY ITERATIONS AND  1 ARE EQUILIBRIUM ITERATIONS.

 TIME INCREMENT COMPLETED  0.500    ,  FRACTION OF STEP COMPLETED  0.927    
 STEP TIME COMPLETED        55.6    ,  TOTAL TIME COMPLETED         55.6    


  INCREMENT   121 STARTS. ATTEMPT NUMBER  1, TIME INCREMENT  0.500    
 
	UNSYMMETRIC DIRECT SPARSE SOLVER RUNNING ON
 	1 HOST x 1 MPI RANK PER HOST x 10 THREADS PER RANK
        NUMBER OF EQUATIONS:  205488
        NUMBER OF RHS:        1
        NUMBER OF FLOPS:      9.521e+10
        SOLVER ELAPSED TIME:  585ms

               CONVERGENCE CHECKS FOR EQUILIBRIUM ITERATION     1

   MAX. PENETRATION ERROR -390.934E-15   AT NODE ANCHOR-1.419 OF CONTACT PAIR 
   (GENERAL_CONTACT_EDGES_1,GENERAL_CONTACT_FACES_4)
   MAX. CONTACT FORCE ERROR -5.10953E-09 AT NODE ANCHOR-1.419 OF CONTACT PAIR 
   (GENERAL_CONTACT_EDGES_1,GENERAL_CONTACT_FACES_4)
          THE CONTACT CONSTRAINTS HAVE CONVERGED.

 AVERAGE FORCE                       22.6       TIME AVG. FORCE        10.6    
 LARGEST SCALED RESIDUAL FORCE     -3.850E-07   AT NODE       1639   DOF  2
   INSTANCE: CONCRETE-1                                                                      
  CORRESPONDING RESIDUAL FORCE     -3.850E-07
 LARGEST INCREMENT OF DISP.         8.333E-03   AT NODE          1   DOF  2
   INSTANCE: ANCHOR-1                                                                        
 LARGEST CORRECTION TO DISP.        1.934E-07   AT NODE       1647   DOF  1
   INSTANCE: CONCRETE-1                                                                      
          THE FORCE     EQUILIBRIUM EQUATIONS HAVE CONVERGED

 ITERATION SUMMARY FOR THE INCREMENT:   1 TOTAL ITERATIONS, OF WHICH
   0 ARE SEVERE DISCONTINUITY ITERATIONS AND  1 ARE EQUILIBRIUM ITERATIONS.

 TIME INCREMENT COMPLETED  0.500    ,  FRACTION OF STEP COMPLETED  0.936    
 STEP TIME COMPLETED        56.1    ,  TOTAL TIME COMPLETED         56.1    


  INCREMENT   122 STARTS. ATTEMPT NUMBER  1, TIME INCREMENT  0.500    
 
	UNSYMMETRIC DIRECT SPARSE SOLVER RUNNING ON
 	1 HOST x 1 MPI RANK PER HOST x 10 THREADS PER RANK
        NUMBER OF EQUATIONS:  205488
        NUMBER OF RHS:        1
        NUMBER OF FLOPS:      9.521e+10
        SOLVER ELAPSED TIME:  544ms

               CONVERGENCE CHECKS FOR EQUILIBRIUM ITERATION     1

   MAX. PENETRATION ERROR -396.201E-15   AT NODE ANCHOR-1.419 OF CONTACT PAIR 
   (GENERAL_CONTACT_EDGES_1,GENERAL_CONTACT_FACES_4)
   MAX. CONTACT FORCE ERROR -5.17840E-09 AT NODE ANCHOR-1.419 OF CONTACT PAIR 
   (GENERAL_CONTACT_EDGES_1,GENERAL_CONTACT_FACES_4)
          THE CONTACT CONSTRAINTS HAVE CONVERGED.

 AVERAGE FORCE                       22.8       TIME AVG. FORCE        10.7    
 LARGEST SCALED RESIDUAL FORCE     -3.905E-07   AT NODE       1639   DOF  2
   INSTANCE: CONCRETE-1                                                                      
  CORRESPONDING RESIDUAL FORCE     -3.905E-07
 LARGEST INCREMENT OF DISP.         8.333E-03   AT NODE          1   DOF  2
   INSTANCE: ANCHOR-1                                                                        
 LARGEST CORRECTION TO DISP.        1.923E-07   AT NODE       1647   DOF  1
   INSTANCE: CONCRETE-1                                                                      
          THE FORCE     EQUILIBRIUM EQUATIONS HAVE CONVERGED

 ITERATION SUMMARY FOR THE INCREMENT:   1 TOTAL ITERATIONS, OF WHICH
   0 ARE SEVERE DISCONTINUITY ITERATIONS AND  1 ARE EQUILIBRIUM ITERATIONS.

 TIME INCREMENT COMPLETED  0.500    ,  FRACTION OF STEP COMPLETED  0.944    
 STEP TIME COMPLETED        56.6    ,  TOTAL TIME COMPLETED         56.6    


  INCREMENT   123 STARTS. ATTEMPT NUMBER  1, TIME INCREMENT  0.500    
 
	UNSYMMETRIC DIRECT SPARSE SOLVER RUNNING ON
 	1 HOST x 1 MPI RANK PER HOST x 10 THREADS PER RANK
        NUMBER OF EQUATIONS:  205488
        NUMBER OF RHS:        1
        NUMBER OF FLOPS:      9.521e+10
        SOLVER ELAPSED TIME:  588ms

               CONVERGENCE CHECKS FOR EQUILIBRIUM ITERATION     1

   MAX. PENETRATION ERROR -401.712E-15   AT NODE ANCHOR-1.419 OF CONTACT PAIR 
   (GENERAL_CONTACT_EDGES_1,GENERAL_CONTACT_FACES_4)
   MAX. CONTACT FORCE ERROR -5.25046E-09 AT NODE ANCHOR-1.419 OF CONTACT PAIR 
   (GENERAL_CONTACT_EDGES_1,GENERAL_CONTACT_FACES_4)
          THE CONTACT CONSTRAINTS HAVE CONVERGED.

 AVERAGE FORCE                       23.0       TIME AVG. FORCE        10.8    
 LARGEST SCALED RESIDUAL FORCE     -3.960E-07   AT NODE       1639   DOF  2
   INSTANCE: CONCRETE-1                                                                      
  CORRESPONDING RESIDUAL FORCE     -3.960E-07
 LARGEST INCREMENT OF DISP.         8.333E-03   AT NODE          1   DOF  2
   INSTANCE: ANCHOR-1                                                                        
 LARGEST CORRECTION TO DISP.        1.911E-07   AT NODE       1647   DOF  1
   INSTANCE: CONCRETE-1                                                                      
          THE FORCE     EQUILIBRIUM EQUATIONS HAVE CONVERGED

 ITERATION SUMMARY FOR THE INCREMENT:   1 TOTAL ITERATIONS, OF WHICH
   0 ARE SEVERE DISCONTINUITY ITERATIONS AND  1 ARE EQUILIBRIUM ITERATIONS.

 TIME INCREMENT COMPLETED  0.500    ,  FRACTION OF STEP COMPLETED  0.952    
 STEP TIME COMPLETED        57.1    ,  TOTAL TIME COMPLETED         57.1    


  INCREMENT   124 STARTS. ATTEMPT NUMBER  1, TIME INCREMENT  0.500    
 
	UNSYMMETRIC DIRECT SPARSE SOLVER RUNNING ON
 	1 HOST x 1 MPI RANK PER HOST x 10 THREADS PER RANK
        NUMBER OF EQUATIONS:  205488
        NUMBER OF RHS:        1
        NUMBER OF FLOPS:      9.521e+10
        SOLVER ELAPSED TIME:  578ms

               CONVERGENCE CHECKS FOR EQUILIBRIUM ITERATION     1

   MAX. PENETRATION ERROR -407.105E-15   AT NODE ANCHOR-1.419 OF CONTACT PAIR 
   (GENERAL_CONTACT_EDGES_1,GENERAL_CONTACT_FACES_4)
   MAX. CONTACT FORCE ERROR -5.32098E-09 AT NODE ANCHOR-1.419 OF CONTACT PAIR 
   (GENERAL_CONTACT_EDGES_1,GENERAL_CONTACT_FACES_4)
          THE CONTACT CONSTRAINTS HAVE CONVERGED.

 AVERAGE FORCE                       23.2       TIME AVG. FORCE        10.9    
 LARGEST SCALED RESIDUAL FORCE     -4.015E-07   AT NODE       1639   DOF  2
   INSTANCE: CONCRETE-1                                                                      
  CORRESPONDING RESIDUAL FORCE     -4.015E-07
 LARGEST INCREMENT OF DISP.         8.333E-03   AT NODE          1   DOF  2
   INSTANCE: ANCHOR-1                                                                        
 LARGEST CORRECTION TO DISP.        1.900E-07   AT NODE       1647   DOF  1
   INSTANCE: CONCRETE-1                                                                      
          THE FORCE     EQUILIBRIUM EQUATIONS HAVE CONVERGED

 ITERATION SUMMARY FOR THE INCREMENT:   1 TOTAL ITERATIONS, OF WHICH
   0 ARE SEVERE DISCONTINUITY ITERATIONS AND  1 ARE EQUILIBRIUM ITERATIONS.

 TIME INCREMENT COMPLETED  0.500    ,  FRACTION OF STEP COMPLETED  0.961    
 STEP TIME COMPLETED        57.6    ,  TOTAL TIME COMPLETED         57.6    


  INCREMENT   125 STARTS. ATTEMPT NUMBER  1, TIME INCREMENT  0.500    
 
	UNSYMMETRIC DIRECT SPARSE SOLVER RUNNING ON
 	1 HOST x 1 MPI RANK PER HOST x 10 THREADS PER RANK
        NUMBER OF EQUATIONS:  205488
        NUMBER OF RHS:        1
        NUMBER OF FLOPS:      9.521e+10
        SOLVER ELAPSED TIME:  533ms

               CONVERGENCE CHECKS FOR EQUILIBRIUM ITERATION     1

   MAX. PENETRATION ERROR -412.611E-15   AT NODE ANCHOR-1.419 OF CONTACT PAIR 
   (GENERAL_CONTACT_EDGES_1,GENERAL_CONTACT_FACES_4)
   MAX. CONTACT FORCE ERROR -5.39296E-09 AT NODE ANCHOR-1.419 OF CONTACT PAIR 
   (GENERAL_CONTACT_EDGES_1,GENERAL_CONTACT_FACES_4)
          THE CONTACT CONSTRAINTS HAVE CONVERGED.

 AVERAGE FORCE                       23.4       TIME AVG. FORCE        11.0    
 LARGEST SCALED RESIDUAL FORCE     -4.070E-07   AT NODE       1639   DOF  2
   INSTANCE: CONCRETE-1                                                                      
  CORRESPONDING RESIDUAL FORCE     -4.070E-07
 LARGEST INCREMENT OF DISP.         8.333E-03   AT NODE          1   DOF  2
   INSTANCE: ANCHOR-1                                                                        
 LARGEST CORRECTION TO DISP.        1.889E-07   AT NODE       1647   DOF  1
   INSTANCE: CONCRETE-1                                                                      
          THE FORCE     EQUILIBRIUM EQUATIONS HAVE CONVERGED

 ITERATION SUMMARY FOR THE INCREMENT:   1 TOTAL ITERATIONS, OF WHICH
   0 ARE SEVERE DISCONTINUITY ITERATIONS AND  1 ARE EQUILIBRIUM ITERATIONS.

 TIME INCREMENT COMPLETED  0.500    ,  FRACTION OF STEP COMPLETED  0.969    
 STEP TIME COMPLETED        58.1    ,  TOTAL TIME COMPLETED         58.1    


  INCREMENT   126 STARTS. ATTEMPT NUMBER  1, TIME INCREMENT  0.500    
 
	UNSYMMETRIC DIRECT SPARSE SOLVER RUNNING ON
 	1 HOST x 1 MPI RANK PER HOST x 10 THREADS PER RANK
        NUMBER OF EQUATIONS:  205488
        NUMBER OF RHS:        1
        NUMBER OF FLOPS:      9.521e+10
        SOLVER ELAPSED TIME:  548ms

               CONVERGENCE CHECKS FOR EQUILIBRIUM ITERATION     1

   MAX. PENETRATION ERROR -418.036E-15   AT NODE ANCHOR-1.419 OF CONTACT PAIR 
   (GENERAL_CONTACT_EDGES_1,GENERAL_CONTACT_FACES_4)
   MAX. CONTACT FORCE ERROR -5.46390E-09 AT NODE ANCHOR-1.419 OF CONTACT PAIR 
   (GENERAL_CONTACT_EDGES_1,GENERAL_CONTACT_FACES_4)
          THE CONTACT CONSTRAINTS HAVE CONVERGED.

 AVERAGE FORCE                       23.6       TIME AVG. FORCE        11.1    
 LARGEST SCALED RESIDUAL FORCE     -4.125E-07   AT NODE       1639   DOF  2
   INSTANCE: CONCRETE-1                                                                      
  CORRESPONDING RESIDUAL FORCE     -4.125E-07
 LARGEST INCREMENT OF DISP.         8.333E-03   AT NODE          1   DOF  2
   INSTANCE: ANCHOR-1                                                                        
 LARGEST CORRECTION TO DISP.        1.878E-07   AT NODE       1647   DOF  1
   INSTANCE: CONCRETE-1                                                                      
          THE FORCE     EQUILIBRIUM EQUATIONS HAVE CONVERGED

 ITERATION SUMMARY FOR THE INCREMENT:   1 TOTAL ITERATIONS, OF WHICH
   0 ARE SEVERE DISCONTINUITY ITERATIONS AND  1 ARE EQUILIBRIUM ITERATIONS.

 TIME INCREMENT COMPLETED  0.500    ,  FRACTION OF STEP COMPLETED  0.977    
 STEP TIME COMPLETED        58.6    ,  TOTAL TIME COMPLETED         58.6    


  INCREMENT   127 STARTS. ATTEMPT NUMBER  1, TIME INCREMENT  0.500    
 
	UNSYMMETRIC DIRECT SPARSE SOLVER RUNNING ON
 	1 HOST x 1 MPI RANK PER HOST x 10 THREADS PER RANK
        NUMBER OF EQUATIONS:  205488
        NUMBER OF RHS:        1
        NUMBER OF FLOPS:      9.521e+10
        SOLVER ELAPSED TIME:  533ms

               CONVERGENCE CHECKS FOR EQUILIBRIUM ITERATION     1

   MAX. PENETRATION ERROR -423.529E-15   AT NODE ANCHOR-1.419 OF CONTACT PAIR 
   (GENERAL_CONTACT_EDGES_1,GENERAL_CONTACT_FACES_4)
   MAX. CONTACT FORCE ERROR -5.53573E-09 AT NODE ANCHOR-1.419 OF CONTACT PAIR 
   (GENERAL_CONTACT_EDGES_1,GENERAL_CONTACT_FACES_4)
          THE CONTACT CONSTRAINTS HAVE CONVERGED.

 AVERAGE FORCE                       23.8       TIME AVG. FORCE        11.2    
 LARGEST SCALED RESIDUAL FORCE     -4.180E-07   AT NODE       1639   DOF  2
   INSTANCE: CONCRETE-1                                                                      
  CORRESPONDING RESIDUAL FORCE     -4.180E-07
 LARGEST INCREMENT OF DISP.         8.333E-03   AT NODE          1   DOF  2
   INSTANCE: ANCHOR-1                                                                        
 LARGEST CORRECTION TO DISP.        1.867E-07   AT NODE       1647   DOF  1
   INSTANCE: CONCRETE-1                                                                      
          THE FORCE     EQUILIBRIUM EQUATIONS HAVE CONVERGED

 ITERATION SUMMARY FOR THE INCREMENT:   1 TOTAL ITERATIONS, OF WHICH
   0 ARE SEVERE DISCONTINUITY ITERATIONS AND  1 ARE EQUILIBRIUM ITERATIONS.

 TIME INCREMENT COMPLETED  0.500    ,  FRACTION OF STEP COMPLETED  0.986    
 STEP TIME COMPLETED        59.1    ,  TOTAL TIME COMPLETED         59.1    


  INCREMENT   128 STARTS. ATTEMPT NUMBER  1, TIME INCREMENT  0.500    
 
	UNSYMMETRIC DIRECT SPARSE SOLVER RUNNING ON
 	1 HOST x 1 MPI RANK PER HOST x 10 THREADS PER RANK
        NUMBER OF EQUATIONS:  205488
        NUMBER OF RHS:        1
        NUMBER OF FLOPS:      9.521e+10
        SOLVER ELAPSED TIME:  537ms

               CONVERGENCE CHECKS FOR EQUILIBRIUM ITERATION     1

   MAX. PENETRATION ERROR -428.978E-15   AT NODE ANCHOR-1.419 OF CONTACT PAIR 
   (GENERAL_CONTACT_EDGES_1,GENERAL_CONTACT_FACES_4)
   MAX. CONTACT FORCE ERROR -5.60698E-09 AT NODE ANCHOR-1.419 OF CONTACT PAIR 
   (GENERAL_CONTACT_EDGES_1,GENERAL_CONTACT_FACES_4)
          THE CONTACT CONSTRAINTS HAVE CONVERGED.

 AVERAGE FORCE                       24.0       TIME AVG. FORCE        11.3    
 LARGEST SCALED RESIDUAL FORCE     -4.236E-07   AT NODE       1639   DOF  2
   INSTANCE: CONCRETE-1                                                                      
  CORRESPONDING RESIDUAL FORCE     -4.236E-07
 LARGEST INCREMENT OF DISP.         8.333E-03   AT NODE          1   DOF  2
   INSTANCE: ANCHOR-1                                                                        
 LARGEST CORRECTION TO DISP.        1.856E-07   AT NODE       1647   DOF  1
   INSTANCE: CONCRETE-1                                                                      
          THE FORCE     EQUILIBRIUM EQUATIONS HAVE CONVERGED

 ITERATION SUMMARY FOR THE INCREMENT:   1 TOTAL ITERATIONS, OF WHICH
   0 ARE SEVERE DISCONTINUITY ITERATIONS AND  1 ARE EQUILIBRIUM ITERATIONS.

 TIME INCREMENT COMPLETED  0.500    ,  FRACTION OF STEP COMPLETED  0.994    
 STEP TIME COMPLETED        59.6    ,  TOTAL TIME COMPLETED         59.6    


  INCREMENT   129 STARTS. ATTEMPT NUMBER  1, TIME INCREMENT  0.357    
 
	UNSYMMETRIC DIRECT SPARSE SOLVER RUNNING ON
 	1 HOST x 1 MPI RANK PER HOST x 10 THREADS PER RANK
        NUMBER OF EQUATIONS:  205488
        NUMBER OF RHS:        1
        NUMBER OF FLOPS:      9.521e+10
        SOLVER ELAPSED TIME:  575ms

               CONVERGENCE CHECKS FOR EQUILIBRIUM ITERATION     1

   MAX. PENETRATION ERROR -4.23259E-12 AT NODE ANCHOR-1.419 OF CONTACT PAIR 
   (GENERAL_CONTACT_EDGES_1,GENERAL_CONTACT_FACES_4)
   MAX. CONTACT FORCE ERROR -55.3225E-09  AT NODE ANCHOR-1.419 OF CONTACT PAIR 
   (GENERAL_CONTACT_EDGES_1,GENERAL_CONTACT_FACES_4)
          THE CONTACT CONSTRAINTS HAVE CONVERGED.

 AVERAGE FORCE                       24.2       TIME AVG. FORCE        11.4    
 LARGEST SCALED RESIDUAL FORCE     -8.477E-06   AT NODE      66749   DOF  1
   INSTANCE: ANCHOR-1                                                                        
  CORRESPONDING RESIDUAL FORCE     -8.477E-06
 LARGEST INCREMENT OF DISP.         5.945E-03   AT NODE          1   DOF  2
   INSTANCE: ANCHOR-1                                                                        
 LARGEST CORRECTION TO DISP.       -2.367E-06   AT NODE       1646   DOF  2
   INSTANCE: CONCRETE-1                                                                      
          THE FORCE     EQUILIBRIUM EQUATIONS HAVE CONVERGED

 ITERATION SUMMARY FOR THE INCREMENT:   1 TOTAL ITERATIONS, OF WHICH
   0 ARE SEVERE DISCONTINUITY ITERATIONS AND  1 ARE EQUILIBRIUM ITERATIONS.

 TIME INCREMENT COMPLETED  0.357    ,  FRACTION OF STEP COMPLETED   1.00    
 STEP TIME COMPLETED        60.0    ,  TOTAL TIME COMPLETED         60.0    


          THE ANALYSIS HAS BEEN COMPLETED



     ANALYSIS SUMMARY:
     TOTAL OF        129  INCREMENTS
                       0  CUTBACKS IN AUTOMATIC INCREMENTATION
                     137  ITERATIONS INCLUDING CONTACT ITERATIONS IF PRESENT
                     137  PASSES THROUGH THE EQUATION SOLVER OF WHICH 
                     137  INVOLVE MATRIX DECOMPOSITION, INCLUDING
                       0  DECOMPOSITION(S) OF THE MASS MATRIX
                       1  REORDERING OF EQUATIONS TO MINIMIZE WAVEFRONT
                       0  ADDITIONAL RESIDUAL EVALUATIONS FOR LINE SEARCHES
                       0  ADDITIONAL OPERATOR EVALUATIONS FOR LINE SEARCHES
                       2  WARNING MESSAGES DURING USER INPUT PROCESSING
                       0  WARNING MESSAGES DURING ANALYSIS
                       0  ANALYSIS WARNINGS ARE NUMERICAL PROBLEM MESSAGES
                       0  ANALYSIS WARNINGS ARE NEGATIVE EIGENVALUE MESSAGES
                       0  ERROR MESSAGES



     JOB TIME SUMMARY
       USER TIME (SEC)      =     1.41E+03
       SYSTEM TIME (SEC)    =      69.    
       TOTAL CPU TIME (SEC) =     1.48E+03
       WALLCLOCK TIME (SEC) =          219
       MEMORY PEAK (GB)     =            5
