1

   Abaqus 2024                                  Date 31-Mar-2026   Time 10:18:42
   For use by UNIVERSITAET INNSBRUCK under license from Dassault Systemes or its subsidiary.

                                                                                 
                                                                                 
 STEP    1     INCREMENT     1     STEP TIME    0.00    


                        S T E P       1     D Y N A M I C   A N A L Y S I S - I M P L I C I T  I N T E G R A T I O N


                                                                                          

          DYNAMIC APPLICATION PACKED SCHEME IS                 MODERATE DISSIPATION
          HILBER-HUGHES-TAYLOR (HHT) TIME INTEGRATOR IS USED

     AUTOMATIC TIME CONTROL WITH -
          A SUGGESTED INITIAL TIME INCREMENT OF                1.000E-02
          AND A TOTAL TIME PERIOD OF                            60.0    
          THE MINIMUM TIME INCREMENT ALLOWED IS                1.000E-09
          THE MAXIMUM TIME INCREMENT ALLOWED IS                0.500    

          THE HALF-INCREMENT RESIDUALS WILL NOT BE CALCULATED

          INITIAL ACCELERATIONS WILL NOT BE CALCULATED

          HILBER-HUGHES-TAYLOR METHOD PARAMETERS:  ALPHA   IS  -0.414214    
                                                   BETA    IS   0.500000    
                                                   GAMMA   IS   0.914214    
          CONTACT IMPACT/RELEASE COMPUTATIONS ARE SKIPPED
          AGGRESSIVE   TIME INCREMENTATION IS USED
          STEP AMPLITUDE IS                                    STEP

 CONVERGENCE TOLERANCE PARAMETERS FOR FORCE    
     CRITERION FOR RESIDUAL FORCE     FOR A NONLINEAR PROBLEM          5.000E-03
     CRITERION FOR DISP.    CORRECTION IN A NONLINEAR PROBLEM          1.000E-02
     INITIAL VALUE OF TIME AVERAGE FORCE                               1.000E-02
     AVERAGE FORCE     IS TIME AVERAGE FORCE    
     ALTERNATE CRIT. FOR RESIDUAL FORCE     FOR A NONLINEAR PROBLEM    2.000E-02
     CRITERION FOR ZERO FORCE     RELATIVE TO TIME AVRG. FORCE         1.000E-05
     CRITERION FOR RESIDUAL FORCE     WHEN THERE IS ZERO FLUX          1.000E-05
     CRITERION FOR DISP.    CORRECTION WHEN THERE IS ZERO FLUX         1.000E-03
     CRITERION FOR RESIDUAL FORCE     FOR A LINEAR INCREMENT           1.000E-08
     FIELD CONVERSION RATIO                                             1.00    
     CRITERION FOR ZERO FORCE     REL. TO TIME AVRG. MAX. FORCE        1.000E-05
     CRITERION FOR ZERO DISP.    RELATIVE TO CHARACTERISTIC LENGTH     1.000E-08

     VOLUMETRIC STRAIN COMPATIBILITY TOLERANCE FOR HYBRID SOLIDS       1.000E-05
     AXIAL STRAIN COMPATIBILITY TOLERANCE FOR HYBRID BEAMS             1.000E-05
     TRANS. SHEAR STRAIN COMPATIBILITY TOLERANCE FOR HYBRID BEAMS      1.000E-05
     SOFT CONTACT CONSTRAINT COMPATIBILITY TOLERANCE FOR P>P0          5.000E-03
     SOFT CONTACT CONSTRAINT COMPATIBILITY TOLERANCE FOR P=0.0         0.100    
     CONTACT FORCE ERROR TOLERANCE FOR CONVERT SDI=YES                 1.00    
     DISPLACEMENT COMPATIBILITY TOLERANCE FOR DCOUP ELEMENTS           1.000E-05
     ROTATION COMPATIBILITY TOLERANCE FOR DCOUP ELEMENTS               1.000E-05

 EQUILIBRIUM WILL BE CHECKED FOR SEVERE DISCONTINUITY ITERATIONS

 TIME INCREMENTATION CONTROL PARAMETERS:
     FIRST EQUILIBRIUM ITERATION FOR CONSECUTIVE DIVERGENCE CHECK              4
     EQUILIBRIUM ITERATION AT WHICH LOG. CONVERGENCE RATE CHECK BEGINS         8
     EQUILIBRIUM ITERATION AFTER WHICH ALTERNATE RESIDUAL IS USED              9
 *** MAXIMUM EQUILIBRIUM ITERATIONS ALLOWED                                   50
     EQUILIBRIUM ITERATION COUNT FOR CUT-BACK IN NEXT INCREMENT               10
     MAXIMUM EQUILIB. ITERS IN TWO INCREMENTS FOR TIME INCREMENT INCREASE      4
     MAXIMUM ITERATIONS FOR SEVERE DISCONTINUITIES                            50
 *** MAXIMUM ATTEMPTS ALLOWED IN AN INCREMENT                                 12
     MAXIMUM DISCON. ITERS IN TWO INCREMENTS FOR TIME INCREMENT INCREASE      50
     MAXIMUM CONTACT AUGMENTATIONS FOR *SURFACE BEHAVIOR,AUGMENTED LAGRANGE   50
     CUT-BACK FACTOR AFTER DIVERGENCE                                 0.2500    
     CUT-BACK FACTOR FOR TOO SLOW CONVERGENCE                         0.5000    
     CUT-BACK FACTOR AFTER TOO MANY EQUILIBRIUM ITERATIONS            0.7500    
     CUT-BACK FACTOR AFTER TOO MANY SEVERE DISCONTINUITY ITERATIONS   0.2500    
     CUT-BACK FACTOR AFTER PROBLEMS IN ELEMENT ASSEMBLY               0.2500    
     INCREASE FACTOR AFTER TWO INCREMENTS THAT CONVERGE QUICKLY        1.500    
     MAX. TIME INCREMENT INCREASE FACTOR ALLOWED                       1.500    
     MAX. TIME INCREMENT INCREASE FACTOR ALLOWED (DYNAMICS)            1.250    
     MAX. TIME INCREMENT INCREASE FACTOR ALLOWED (DIFFUSION)           2.000    
     MINIMUM TIME INCREMENT RATIO FOR EXTRAPOLATION TO OCCUR          0.1000    
     MAX. RATIO OF TIME INCREMENT TO STABILITY LIMIT                   1.000    
     FRACTION OF STABILITY LIMIT FOR NEW TIME INCREMENT               0.9500    
     TIME INCREMENT INCREASE FACTOR BEFORE A TIME POINT                1.000    

 *** INDICATES USE OF NON-DEFAULT TIME INCREMENTATION CONTROL PARAMETER
     SELECTED WITH *CONTROLS

 CONTACT CONTROLS APPLIED TO ALL CONTACT PAIRS:
     GLOBAL STABILIZATION CONTROL IS NOT USED
     RELATIVE PENETRATION TOLERANCE FOR AUGMENTED LAGRANGE CONTACT:
          FINITE-SLIDING SURFACE-TO-SURFACE                            5.000E-02
          OTHERWISE                                                    1.000E-03

          PRINT OF INCREMENT NUMBER, TIME, ETC., EVERY    1  INCREMENTS

     THE MAXIMUM NUMBER OF INCREMENTS IN THIS STEP IS                  100000

          UNSYMMETRIC MATRIX STORAGE AND SOLUTION WILL BE USED

     LINEAR EXTRAPOLATION WILL BE USED

     CHARACTERISTIC ELEMENT LENGTH      4.01    

     DETAILS REGARDING ACTUAL SOLUTION WAVEFRONT REQUESTED

     DETAILED OUTPUT OF DIAGNOSTICS TO DATABASE REQUESTED

     PRINT OF INCREMENT NUMBER, TIME, ETC., TO THE MESSAGE FILE EVERY     1  INCREMENTS

     ELEMENT OPERATIONS WILL BE CARRIED OUT IN PARALLEL USING  10 THREADS ON 1 DOMAIN

     PARALLEL CONTACT TRACKING ENABLED


     COLLECTING MODEL CONSTRAINT INFORMATION FOR OVERCONSTRAINT CHECKS

     COLLECTING STEP CONSTRAINT INFORMATION FOR OVERCONSTRAINT CHECKS


  INCREMENT     1 STARTS. ATTEMPT NUMBER  1, TIME INCREMENT  1.000E-02
 
     INITIAL ELEMENT LOAD BALANCE
            DOMAIN    1     THREAD    NUMBER OF ELEMENTS
                              1            1008
                              2            1024
                              3            1112
                              4            1076
                              5            992
                              6            896
                              7            856
                              8            1080
                              9            1016
                             10            1019
 
	UNSYMMETRIC DIRECT SPARSE SOLVER RUNNING ON
 	1 HOST x 1 MPI RANK PER HOST x 10 THREADS PER RANK
        NUMBER OF EQUATIONS:  205488
        NUMBER OF RHS:        1
        NUMBER OF FLOPS:      9.721e+10
        SOLVER ELAPSED TIME:  602ms

                  469 SEVERE DISCONTINUITIES OCCURRED DURING THIS ITERATION.
                  469 POINTS CHANGED FROM CLOSED TO OPEN

               CONVERGENCE CHECKS FOR SEVERE DISCONTINUITY ITERATION     1

   MAX. PENETRATION ERROR -480.058E-15   AT NODE CONCRETE-1.25254 OF CONTACT 
   PAIR (GENERAL_CONTACT_FACES_3,GENERAL_CONTACT_FACES_2)
   MAX. CONTACT FORCE ERROR -55.6404E-03  AT NODE CONCRETE-1.38360 OF CONTACT 
   PAIR (GENERAL_CONTACT_FACES_3,GENERAL_CONTACT_FACES_2)
          THE ESTIMATED CONTACT FORCE ERROR IS OUTSIDE OF CONVERGENCE TOLERANCES.

 AVERAGE FORCE                      1.256E-03   TIME AVG. FORCE       1.256E-03
 LARGEST SCALED RESIDUAL FORCE      6.762E-02   AT NODE      38489   DOF  1
   INSTANCE: CONCRETE-1                                                                      
  CORRESPONDING RESIDUAL FORCE      6.762E-02
 LARGEST INCREMENT OF DISP.         1.667E-04   AT NODE          1   DOF  2
   INSTANCE: ANCHOR-1                                                                        
 LARGEST CORRECTION TO DISP.        1.667E-04   AT NODE          1   DOF  2
   INSTANCE: ANCHOR-1                                                                        
          FORCE     EQUILIBRIUM NOT ACHIEVED WITHIN TOLERANCE.
 
	UNSYMMETRIC DIRECT SPARSE SOLVER RUNNING ON
 	1 HOST x 1 MPI RANK PER HOST x 10 THREADS PER RANK
        NUMBER OF EQUATIONS:  205488
        NUMBER OF RHS:        1
        NUMBER OF FLOPS:      8.985e+10
        SOLVER ELAPSED TIME:  506ms

                  177 SEVERE DISCONTINUITIES OCCURRED DURING THIS ITERATION.
                  165 POINTS CHANGED FROM OPEN TO CLOSED
                   12 POINTS CHANGED FROM CLOSED TO OPEN

               CONVERGENCE CHECKS FOR SEVERE DISCONTINUITY ITERATION     2

   MAX. PENETRATION ERROR 36.6562E-06  AT NODE CONCRETE-1.6578 OF CONTACT PAIR 
   (GENERAL_CONTACT_FACES_4,GENERAL_CONTACT_FACES_1)
   MAX. CONTACT FORCE ERROR 953.489E-03   AT NODE CONCRETE-1.38670 OF CONTACT 
   PAIR (GENERAL_CONTACT_FACES_4,GENERAL_CONTACT_FACES_1)
          PENETRATION ERROR TOO LARGE COMPARED TO DISPLACEMENT INCREMENT.

 AVERAGE FORCE                      1.093E-03   TIME AVG. FORCE       1.093E-03
 LARGEST SCALED RESIDUAL FORCE      0.130       AT NODE      25254   DOF  1
   INSTANCE: CONCRETE-1                                                                      
  CORRESPONDING RESIDUAL FORCE      0.130    
 LARGEST INCREMENT OF DISP.         1.667E-04   AT NODE          1   DOF  2
   INSTANCE: ANCHOR-1                                                                        
 LARGEST CORRECTION TO DISP.       -4.855E-05   AT NODE      10399   DOF  2
   INSTANCE: CONCRETE-1                                                                      
          FORCE     EQUILIBRIUM NOT ACHIEVED WITHIN TOLERANCE.
 
	UNSYMMETRIC DIRECT SPARSE SOLVER RUNNING ON
 	1 HOST x 1 MPI RANK PER HOST x 10 THREADS PER RANK
        NUMBER OF EQUATIONS:  205488
        NUMBER OF RHS:        1
        NUMBER OF FLOPS:      9.065e+10
        SOLVER ELAPSED TIME:  494ms

                   12 SEVERE DISCONTINUITIES OCCURRED DURING THIS ITERATION.
                    2 POINTS CHANGED FROM OPEN TO CLOSED
                   10 POINTS CHANGED FROM CLOSED TO OPEN

               CONVERGENCE CHECKS FOR SEVERE DISCONTINUITY ITERATION     3

   MAX. PENETRATION ERROR 510.618E-09   AT NODE CONCRETE-1.10527 OF CONTACT 
   PAIR (GENERAL_CONTACT_FACES_4,GENERAL_CONTACT_FACES_1)
   MAX. CONTACT FORCE ERROR -64.1573E-03  AT NODE CONCRETE-1.38639 OF CONTACT 
   PAIR (GENERAL_CONTACT_FACES_4,GENERAL_CONTACT_FACES_1)
          THE ESTIMATED CONTACT FORCE ERROR IS OUTSIDE OF CONVERGENCE TOLERANCES.

 AVERAGE FORCE                      1.253E-03   TIME AVG. FORCE       1.253E-03
 LARGEST SCALED RESIDUAL FORCE      4.464E-02   AT NODE      66700   DOF  1
   INSTANCE: ANCHOR-1                                                                        
  CORRESPONDING RESIDUAL FORCE      4.464E-02
 LARGEST INCREMENT OF DISP.         1.667E-04   AT NODE          1   DOF  2
   INSTANCE: ANCHOR-1                                                                        
 LARGEST CORRECTION TO DISP.        3.435E-05   AT NODE      25310   DOF  2
   INSTANCE: CONCRETE-1                                                                      
          FORCE     EQUILIBRIUM NOT ACHIEVED WITHIN TOLERANCE.
 
	UNSYMMETRIC DIRECT SPARSE SOLVER RUNNING ON
 	1 HOST x 1 MPI RANK PER HOST x 10 THREADS PER RANK
        NUMBER OF EQUATIONS:  205488
        NUMBER OF RHS:        1
        NUMBER OF FLOPS:      9.065e+10
        SOLVER ELAPSED TIME:  485ms

                    9 SEVERE DISCONTINUITIES OCCURRED DURING THIS ITERATION.
                    3 POINTS CHANGED FROM OPEN TO CLOSED
                    6 POINTS CHANGED FROM CLOSED TO OPEN

               CONVERGENCE CHECKS FOR SEVERE DISCONTINUITY ITERATION     4

   MAX. PENETRATION ERROR 103.170E-09   AT NODE CONCRETE-1.25231 OF CONTACT 
   PAIR (GENERAL_CONTACT_FACES_3,GENERAL_CONTACT_FACES_2)
   MAX. CONTACT FORCE ERROR -42.1897E-03  AT NODE CONCRETE-1.38488 OF CONTACT 
   PAIR (GENERAL_CONTACT_FACES_3,GENERAL_CONTACT_FACES_2)
          THE ESTIMATED CONTACT FORCE ERROR IS OUTSIDE OF CONVERGENCE TOLERANCES.

 AVERAGE FORCE                      1.249E-03   TIME AVG. FORCE       1.249E-03
 LARGEST SCALED RESIDUAL FORCE     -2.592E-02   AT NODE      66707   DOF  1
   INSTANCE: ANCHOR-1                                                                        
  CORRESPONDING RESIDUAL FORCE     -2.592E-02
 LARGEST INCREMENT OF DISP.         1.667E-04   AT NODE          1   DOF  2
   INSTANCE: ANCHOR-1                                                                        
 LARGEST CORRECTION TO DISP.        1.453E-06   AT NODE      25230   DOF  1
   INSTANCE: CONCRETE-1                                                                      
          FORCE     EQUILIBRIUM NOT ACHIEVED WITHIN TOLERANCE.
 
	UNSYMMETRIC DIRECT SPARSE SOLVER RUNNING ON
 	1 HOST x 1 MPI RANK PER HOST x 10 THREADS PER RANK
        NUMBER OF EQUATIONS:  205488
        NUMBER OF RHS:        1
        NUMBER OF FLOPS:      9.065e+10
        SOLVER ELAPSED TIME:  491ms

                    3 SEVERE DISCONTINUITIES OCCURRED DURING THIS ITERATION.
                    1 POINTS CHANGED FROM OPEN TO CLOSED
                    2 POINTS CHANGED FROM CLOSED TO OPEN

               CONVERGENCE CHECKS FOR SEVERE DISCONTINUITY ITERATION     5

   MAX. PENETRATION ERROR 254.302E-09   AT NODE CONCRETE-1.1636 OF CONTACT PAIR 
   (GENERAL_CONTACT_FACES_3,GENERAL_CONTACT_FACES_2)
   MAX. CONTACT FORCE ERROR -20.8587E-03  AT NODE CONCRETE-1.10591 OF CONTACT 
   PAIR (GENERAL_CONTACT_FACES_3,GENERAL_CONTACT_FACES_2)
          THE ESTIMATED CONTACT FORCE ERROR IS OUTSIDE OF CONVERGENCE TOLERANCES.

 AVERAGE FORCE                      1.252E-03   TIME AVG. FORCE       1.252E-03
 LARGEST SCALED RESIDUAL FORCE     -8.451E-03   AT NODE          2   DOF  1
   INSTANCE: ANCHOR-1                                                                        
  CORRESPONDING RESIDUAL FORCE     -8.451E-03
 LARGEST INCREMENT OF DISP.         1.667E-04   AT NODE          1   DOF  2
   INSTANCE: ANCHOR-1                                                                        
 LARGEST CORRECTION TO DISP.        1.942E-06   AT NODE      38488   DOF  1
   INSTANCE: CONCRETE-1                                                                      
          FORCE     EQUILIBRIUM NOT ACHIEVED WITHIN TOLERANCE.
 
	UNSYMMETRIC DIRECT SPARSE SOLVER RUNNING ON
 	1 HOST x 1 MPI RANK PER HOST x 10 THREADS PER RANK
        NUMBER OF EQUATIONS:  205488
        NUMBER OF RHS:        1
        NUMBER OF FLOPS:      9.047e+10
        SOLVER ELAPSED TIME:  491ms

                    2 SEVERE DISCONTINUITIES OCCURRED DURING THIS ITERATION.
                    2 POINTS CHANGED FROM OPEN TO CLOSED

               CONVERGENCE CHECKS FOR SEVERE DISCONTINUITY ITERATION     6

   MAX. PENETRATION ERROR 265.344E-09   AT NODE CONCRETE-1.10591 OF CONTACT 
   PAIR (GENERAL_CONTACT_FACES_3,GENERAL_CONTACT_FACES_2)
   MAX. CONTACT FORCE ERROR 2.31475E-03 AT NODE CONCRETE-1.38488 OF CONTACT 
   PAIR (GENERAL_CONTACT_FACES_3,GENERAL_CONTACT_FACES_2)
          THE ESTIMATED CONTACT FORCE ERROR IS OUTSIDE OF CONVERGENCE TOLERANCES.

 AVERAGE FORCE                      1.253E-03   TIME AVG. FORCE       1.253E-03
 LARGEST SCALED RESIDUAL FORCE     -2.709E-07   AT NODE      66707   DOF  2
   INSTANCE: ANCHOR-1                                                                        
  CORRESPONDING RESIDUAL FORCE     -2.709E-07
 LARGEST INCREMENT OF DISP.         1.667E-04   AT NODE          1   DOF  2
   INSTANCE: ANCHOR-1                                                                        
 LARGEST CORRECTION TO DISP.        3.628E-06   AT NODE      10591   DOF  1
   INSTANCE: CONCRETE-1                                                                      
          DISP.    CORRECTION TOO LARGE COMPARED TO DISP.    INCREMENT
 
	UNSYMMETRIC DIRECT SPARSE SOLVER RUNNING ON
 	1 HOST x 1 MPI RANK PER HOST x 10 THREADS PER RANK
        NUMBER OF EQUATIONS:  205488
        NUMBER OF RHS:        1
        NUMBER OF FLOPS:      9.047e+10
        SOLVER ELAPSED TIME:  499ms

               CONVERGENCE CHECKS FOR EQUILIBRIUM ITERATION     1

   MAX. PENETRATION ERROR 47.6839E-15  AT NODE CONCRETE-1.38655 OF CONTACT PAIR 
   (GENERAL_CONTACT_FACES_4,GENERAL_CONTACT_FACES_1)
   MAX. CONTACT FORCE ERROR -767.744E-12   AT NODE CONCRETE-1.38529 OF CONTACT 
   PAIR (GENERAL_CONTACT_FACES_3,GENERAL_CONTACT_FACES_2)
          THE CONTACT CONSTRAINTS HAVE CONVERGED.

 AVERAGE FORCE                      1.251E-03   TIME AVG. FORCE       1.251E-03
 LARGEST SCALED RESIDUAL FORCE     -2.418E-07   AT NODE      66707   DOF  2
   INSTANCE: ANCHOR-1                                                                        
  CORRESPONDING RESIDUAL FORCE     -2.418E-07
 LARGEST INCREMENT OF DISP.         1.667E-04   AT NODE          1   DOF  2
   INSTANCE: ANCHOR-1                                                                        
 LARGEST CORRECTION TO DISP.        2.840E-07   AT NODE      38488   DOF  2
   INSTANCE: CONCRETE-1                                                                      
          THE FORCE     EQUILIBRIUM EQUATIONS HAVE CONVERGED

 ITERATION SUMMARY FOR THE INCREMENT:   7 TOTAL ITERATIONS, OF WHICH
   6 ARE SEVERE DISCONTINUITY ITERATIONS AND  1 ARE EQUILIBRIUM ITERATIONS.

 TIME INCREMENT COMPLETED  1.000E-02,  FRACTION OF STEP COMPLETED  1.667E-04
 STEP TIME COMPLETED       1.000E-02,  TOTAL TIME COMPLETED        1.000E-02


  INCREMENT     2 STARTS. ATTEMPT NUMBER  1, TIME INCREMENT  1.000E-02
 
	UNSYMMETRIC DIRECT SPARSE SOLVER RUNNING ON
 	1 HOST x 1 MPI RANK PER HOST x 10 THREADS PER RANK
        NUMBER OF EQUATIONS:  205488
        NUMBER OF RHS:        1
        NUMBER OF FLOPS:      9.047e+10
        SOLVER ELAPSED TIME:  496ms

               CONVERGENCE CHECKS FOR EQUILIBRIUM ITERATION     1

   MAX. PENETRATION ERROR 40.5837E-15  AT NODE CONCRETE-1.38661 OF CONTACT PAIR 
   (GENERAL_CONTACT_FACES_4,GENERAL_CONTACT_FACES_1)
   MAX. CONTACT FORCE ERROR 1.05501E-09 AT NODE CONCRETE-1.38661 OF CONTACT 
   PAIR (GENERAL_CONTACT_FACES_4,GENERAL_CONTACT_FACES_1)
          THE CONTACT CONSTRAINTS HAVE CONVERGED.

 AVERAGE FORCE                      8.225E-03   TIME AVG. FORCE       4.738E-03
 LARGEST SCALED RESIDUAL FORCE     -3.756E-08   AT NODE      66722   DOF  1
   INSTANCE: ANCHOR-1                                                                        
  CORRESPONDING RESIDUAL FORCE     -3.756E-08
 LARGEST INCREMENT OF DISP.         1.667E-04   AT NODE          1   DOF  2
   INSTANCE: ANCHOR-1                                                                        
 LARGEST CORRECTION TO DISP.        8.524E-07   AT NODE      10355   DOF  2
   INSTANCE: CONCRETE-1                                                                      
          THE FORCE     EQUILIBRIUM EQUATIONS HAVE CONVERGED
          TIME INCREMENT MAY NOW INCREASE TO    1.500E-02

 ITERATION SUMMARY FOR THE INCREMENT:   1 TOTAL ITERATIONS, OF WHICH
   0 ARE SEVERE DISCONTINUITY ITERATIONS AND  1 ARE EQUILIBRIUM ITERATIONS.

 TIME INCREMENT COMPLETED  1.000E-02,  FRACTION OF STEP COMPLETED  3.333E-04
 STEP TIME COMPLETED       2.000E-02,  TOTAL TIME COMPLETED        2.000E-02


  INCREMENT     3 STARTS. ATTEMPT NUMBER  1, TIME INCREMENT  1.500E-02
 
	UNSYMMETRIC DIRECT SPARSE SOLVER RUNNING ON
 	1 HOST x 1 MPI RANK PER HOST x 10 THREADS PER RANK
        NUMBER OF EQUATIONS:  205488
        NUMBER OF RHS:        1
        NUMBER OF FLOPS:      9.047e+10
        SOLVER ELAPSED TIME:  494ms

               CONVERGENCE CHECKS FOR EQUILIBRIUM ITERATION     1

   MAX. PENETRATION ERROR 34.3100E-15  AT NODE CONCRETE-1.25305 OF CONTACT PAIR 
   (GENERAL_CONTACT_FACES_4,GENERAL_CONTACT_FACES_1)
   MAX. CONTACT FORCE ERROR 690.608E-12   AT NODE CONCRETE-1.38543 OF CONTACT 
   PAIR (GENERAL_CONTACT_FACES_3,GENERAL_CONTACT_FACES_2)
          THE CONTACT CONSTRAINTS HAVE CONVERGED.

 AVERAGE FORCE                      1.439E-02   TIME AVG. FORCE       7.956E-03
 LARGEST SCALED RESIDUAL FORCE     -1.046E-08   AT NODE      66580   DOF  1
   INSTANCE: ANCHOR-1                                                                        
  CORRESPONDING RESIDUAL FORCE     -1.046E-08
 LARGEST INCREMENT OF DISP.         2.500E-04   AT NODE          1   DOF  2
   INSTANCE: ANCHOR-1                                                                        
 LARGEST CORRECTION TO DISP.       -1.692E-06   AT NODE      10312   DOF  2
   INSTANCE: CONCRETE-1                                                                      
          THE FORCE     EQUILIBRIUM EQUATIONS HAVE CONVERGED
          TIME INCREMENT MAY NOW INCREASE TO    2.250E-02

 ITERATION SUMMARY FOR THE INCREMENT:   1 TOTAL ITERATIONS, OF WHICH
   0 ARE SEVERE DISCONTINUITY ITERATIONS AND  1 ARE EQUILIBRIUM ITERATIONS.

 TIME INCREMENT COMPLETED  1.500E-02,  FRACTION OF STEP COMPLETED  5.833E-04
 STEP TIME COMPLETED       3.500E-02,  TOTAL TIME COMPLETED        3.500E-02


  INCREMENT     4 STARTS. ATTEMPT NUMBER  1, TIME INCREMENT  2.250E-02
 
	UNSYMMETRIC DIRECT SPARSE SOLVER RUNNING ON
 	1 HOST x 1 MPI RANK PER HOST x 10 THREADS PER RANK
        NUMBER OF EQUATIONS:  205488
        NUMBER OF RHS:        1
        NUMBER OF FLOPS:      9.047e+10
        SOLVER ELAPSED TIME:  506ms

               CONVERGENCE CHECKS FOR EQUILIBRIUM ITERATION     1

   MAX. PENETRATION ERROR -37.2246E-15  AT NODE CONCRETE-1.38518 OF CONTACT 
   PAIR (GENERAL_CONTACT_FACES_3,GENERAL_CONTACT_FACES_2)
   MAX. CONTACT FORCE ERROR -623.072E-12   AT NODE CONCRETE-1.38534 OF CONTACT 
   PAIR (GENERAL_CONTACT_FACES_3,GENERAL_CONTACT_FACES_2)
          THE CONTACT CONSTRAINTS HAVE CONVERGED.

 AVERAGE FORCE                      2.355E-02   TIME AVG. FORCE       1.185E-02
 LARGEST SCALED RESIDUAL FORCE     -1.947E-09   AT NODE      38657   DOF  1
   INSTANCE: CONCRETE-1                                                                      
  CORRESPONDING RESIDUAL FORCE     -1.947E-09
 LARGEST INCREMENT OF DISP.         3.750E-04   AT NODE          1   DOF  2
   INSTANCE: ANCHOR-1                                                                        
 LARGEST CORRECTION TO DISP.        1.764E-06   AT NODE      10312   DOF  2
   INSTANCE: CONCRETE-1                                                                      
          THE FORCE     EQUILIBRIUM EQUATIONS HAVE CONVERGED
          TIME INCREMENT MAY NOW INCREASE TO    3.375E-02

 ITERATION SUMMARY FOR THE INCREMENT:   1 TOTAL ITERATIONS, OF WHICH
   0 ARE SEVERE DISCONTINUITY ITERATIONS AND  1 ARE EQUILIBRIUM ITERATIONS.

 TIME INCREMENT COMPLETED  2.250E-02,  FRACTION OF STEP COMPLETED  9.583E-04
 STEP TIME COMPLETED       5.750E-02,  TOTAL TIME COMPLETED        5.750E-02


  INCREMENT     5 STARTS. ATTEMPT NUMBER  1, TIME INCREMENT  3.375E-02
 
	UNSYMMETRIC DIRECT SPARSE SOLVER RUNNING ON
 	1 HOST x 1 MPI RANK PER HOST x 10 THREADS PER RANK
        NUMBER OF EQUATIONS:  205488
        NUMBER OF RHS:        1
        NUMBER OF FLOPS:      9.047e+10
        SOLVER ELAPSED TIME:  496ms

               CONVERGENCE CHECKS FOR EQUILIBRIUM ITERATION     1

   MAX. PENETRATION ERROR 41.6709E-15  AT NODE CONCRETE-1.25238 OF CONTACT PAIR 
   (GENERAL_CONTACT_FACES_3,GENERAL_CONTACT_FACES_2)
   MAX. CONTACT FORCE ERROR -824.408E-12   AT NODE CONCRETE-1.38663 OF CONTACT 
   PAIR (GENERAL_CONTACT_FACES_4,GENERAL_CONTACT_FACES_1)
          THE CONTACT CONSTRAINTS HAVE CONVERGED.

 AVERAGE FORCE                      3.730E-02   TIME AVG. FORCE       1.694E-02
 LARGEST SCALED RESIDUAL FORCE      3.957E-10   AT NODE      66573   DOF  1
   INSTANCE: ANCHOR-1                                                                        
  CORRESPONDING RESIDUAL FORCE      3.957E-10
 LARGEST INCREMENT OF DISP.         5.625E-04   AT NODE          1   DOF  2
   INSTANCE: ANCHOR-1                                                                        
 LARGEST CORRECTION TO DISP.       -1.433E-06   AT NODE      10312   DOF  2
   INSTANCE: CONCRETE-1                                                                      
          THE FORCE     EQUILIBRIUM EQUATIONS HAVE CONVERGED
          TIME INCREMENT MAY NOW INCREASE TO    5.063E-02

 ITERATION SUMMARY FOR THE INCREMENT:   1 TOTAL ITERATIONS, OF WHICH
   0 ARE SEVERE DISCONTINUITY ITERATIONS AND  1 ARE EQUILIBRIUM ITERATIONS.

 TIME INCREMENT COMPLETED  3.375E-02,  FRACTION OF STEP COMPLETED  1.521E-03
 STEP TIME COMPLETED       9.125E-02,  TOTAL TIME COMPLETED        9.125E-02


  INCREMENT     6 STARTS. ATTEMPT NUMBER  1, TIME INCREMENT  5.063E-02
 
	UNSYMMETRIC DIRECT SPARSE SOLVER RUNNING ON
 	1 HOST x 1 MPI RANK PER HOST x 10 THREADS PER RANK
        NUMBER OF EQUATIONS:  205488
        NUMBER OF RHS:        1
        NUMBER OF FLOPS:      9.047e+10
        SOLVER ELAPSED TIME:  488ms

               CONVERGENCE CHECKS FOR EQUILIBRIUM ITERATION     1

   MAX. PENETRATION ERROR 41.6877E-15  AT NODE CONCRETE-1.10596 OF CONTACT PAIR 
   (GENERAL_CONTACT_FACES_3,GENERAL_CONTACT_FACES_2)
   MAX. CONTACT FORCE ERROR -927.634E-12   AT NODE CONCRETE-1.38541 OF CONTACT 
   PAIR (GENERAL_CONTACT_FACES_3,GENERAL_CONTACT_FACES_2)
          THE CONTACT CONSTRAINTS HAVE CONVERGED.

 AVERAGE FORCE                      5.783E-02   TIME AVG. FORCE       2.376E-02
 LARGEST SCALED RESIDUAL FORCE      3.035E-10   AT NODE      66737   DOF  2
   INSTANCE: ANCHOR-1                                                                        
  CORRESPONDING RESIDUAL FORCE      3.035E-10
 LARGEST INCREMENT OF DISP.         8.438E-04   AT NODE          1   DOF  2
   INSTANCE: ANCHOR-1                                                                        
 LARGEST CORRECTION TO DISP.        1.052E-06   AT NODE      10312   DOF  2
   INSTANCE: CONCRETE-1                                                                      
          THE FORCE     EQUILIBRIUM EQUATIONS HAVE CONVERGED
          TIME INCREMENT MAY NOW INCREASE TO    7.594E-02

 ITERATION SUMMARY FOR THE INCREMENT:   1 TOTAL ITERATIONS, OF WHICH
   0 ARE SEVERE DISCONTINUITY ITERATIONS AND  1 ARE EQUILIBRIUM ITERATIONS.

 TIME INCREMENT COMPLETED  5.063E-02,  FRACTION OF STEP COMPLETED  2.365E-03
 STEP TIME COMPLETED       0.142    ,  TOTAL TIME COMPLETED        0.142    


  INCREMENT     7 STARTS. ATTEMPT NUMBER  1, TIME INCREMENT  7.594E-02
 
	UNSYMMETRIC DIRECT SPARSE SOLVER RUNNING ON
 	1 HOST x 1 MPI RANK PER HOST x 10 THREADS PER RANK
        NUMBER OF EQUATIONS:  205488
        NUMBER OF RHS:        1
        NUMBER OF FLOPS:      9.047e+10
        SOLVER ELAPSED TIME:  505ms

               CONVERGENCE CHECKS FOR EQUILIBRIUM ITERATION     1

   MAX. PENETRATION ERROR -43.1636E-15  AT NODE CONCRETE-1.25302 OF CONTACT 
   PAIR (GENERAL_CONTACT_FACES_4,GENERAL_CONTACT_FACES_1)
   MAX. CONTACT FORCE ERROR -862.851E-12   AT NODE CONCRETE-1.38664 OF CONTACT 
   PAIR (GENERAL_CONTACT_FACES_4,GENERAL_CONTACT_FACES_1)
          THE CONTACT CONSTRAINTS HAVE CONVERGED.

 AVERAGE FORCE                      8.852E-02   TIME AVG. FORCE       3.301E-02
 LARGEST SCALED RESIDUAL FORCE      6.811E-10   AT NODE      66737   DOF  2
   INSTANCE: ANCHOR-1                                                                        
  CORRESPONDING RESIDUAL FORCE      6.811E-10
 LARGEST INCREMENT OF DISP.         1.266E-03   AT NODE          1   DOF  2
   INSTANCE: ANCHOR-1                                                                        
 LARGEST CORRECTION TO DISP.       -7.400E-07   AT NODE      10312   DOF  2
   INSTANCE: CONCRETE-1                                                                      
          THE FORCE     EQUILIBRIUM EQUATIONS HAVE CONVERGED
          TIME INCREMENT MAY NOW INCREASE TO    0.114    

 ITERATION SUMMARY FOR THE INCREMENT:   1 TOTAL ITERATIONS, OF WHICH
   0 ARE SEVERE DISCONTINUITY ITERATIONS AND  1 ARE EQUILIBRIUM ITERATIONS.

 TIME INCREMENT COMPLETED  7.594E-02,  FRACTION OF STEP COMPLETED  3.630E-03
 STEP TIME COMPLETED       0.218    ,  TOTAL TIME COMPLETED        0.218    


  INCREMENT     8 STARTS. ATTEMPT NUMBER  1, TIME INCREMENT  0.114    
 
	UNSYMMETRIC DIRECT SPARSE SOLVER RUNNING ON
 	1 HOST x 1 MPI RANK PER HOST x 10 THREADS PER RANK
        NUMBER OF EQUATIONS:  205488
        NUMBER OF RHS:        1
        NUMBER OF FLOPS:      9.047e+10
        SOLVER ELAPSED TIME:  476ms

               CONVERGENCE CHECKS FOR EQUILIBRIUM ITERATION     1

   MAX. PENETRATION ERROR 38.7536E-15  AT NODE CONCRETE-1.10583 OF CONTACT PAIR 
   (GENERAL_CONTACT_FACES_3,GENERAL_CONTACT_FACES_2)
   MAX. CONTACT FORCE ERROR 965.268E-12   AT NODE CONCRETE-1.38536 OF CONTACT 
   PAIR (GENERAL_CONTACT_FACES_3,GENERAL_CONTACT_FACES_2)
          THE CONTACT CONSTRAINTS HAVE CONVERGED.

 AVERAGE FORCE                      0.134       TIME AVG. FORCE       4.567E-02
 LARGEST SCALED RESIDUAL FORCE      1.534E-09   AT NODE      66737   DOF  2
   INSTANCE: ANCHOR-1                                                                        
  CORRESPONDING RESIDUAL FORCE      1.534E-09
 LARGEST INCREMENT OF DISP.         1.898E-03   AT NODE          1   DOF  2
   INSTANCE: ANCHOR-1                                                                        
 LARGEST CORRECTION TO DISP.        5.248E-07   AT NODE      10312   DOF  2
   INSTANCE: CONCRETE-1                                                                      
          THE FORCE     EQUILIBRIUM EQUATIONS HAVE CONVERGED
          TIME INCREMENT MAY NOW INCREASE TO    0.171    

 ITERATION SUMMARY FOR THE INCREMENT:   1 TOTAL ITERATIONS, OF WHICH
   0 ARE SEVERE DISCONTINUITY ITERATIONS AND  1 ARE EQUILIBRIUM ITERATIONS.

 TIME INCREMENT COMPLETED  0.114    ,  FRACTION OF STEP COMPLETED  5.529E-03
 STEP TIME COMPLETED       0.332    ,  TOTAL TIME COMPLETED        0.332    


  INCREMENT     9 STARTS. ATTEMPT NUMBER  1, TIME INCREMENT  0.171    
 
	UNSYMMETRIC DIRECT SPARSE SOLVER RUNNING ON
 	1 HOST x 1 MPI RANK PER HOST x 10 THREADS PER RANK
        NUMBER OF EQUATIONS:  205488
        NUMBER OF RHS:        1
        NUMBER OF FLOPS:      9.047e+10
        SOLVER ELAPSED TIME:  488ms

               CONVERGENCE CHECKS FOR EQUILIBRIUM ITERATION     1

   MAX. PENETRATION ERROR -40.2002E-15  AT NODE CONCRETE-1.25240 OF CONTACT 
   PAIR (GENERAL_CONTACT_FACES_3,GENERAL_CONTACT_FACES_2)
   MAX. CONTACT FORCE ERROR -832.761E-12   AT NODE CONCRETE-1.38659 OF CONTACT 
   PAIR (GENERAL_CONTACT_FACES_4,GENERAL_CONTACT_FACES_1)
          THE CONTACT CONSTRAINTS HAVE CONVERGED.

 AVERAGE FORCE                      0.203       TIME AVG. FORCE       6.314E-02
 LARGEST SCALED RESIDUAL FORCE      3.446E-09   AT NODE      66737   DOF  2
   INSTANCE: ANCHOR-1                                                                        
  CORRESPONDING RESIDUAL FORCE      3.446E-09
 LARGEST INCREMENT OF DISP.         2.848E-03   AT NODE          1   DOF  2
   INSTANCE: ANCHOR-1                                                                        
 LARGEST CORRECTION TO DISP.       -3.535E-07   AT NODE      10355   DOF  2
   INSTANCE: CONCRETE-1                                                                      
          THE FORCE     EQUILIBRIUM EQUATIONS HAVE CONVERGED
          TIME INCREMENT MAY NOW INCREASE TO    0.256    

 ITERATION SUMMARY FOR THE INCREMENT:   1 TOTAL ITERATIONS, OF WHICH
   0 ARE SEVERE DISCONTINUITY ITERATIONS AND  1 ARE EQUILIBRIUM ITERATIONS.

 TIME INCREMENT COMPLETED  0.171    ,  FRACTION OF STEP COMPLETED  8.376E-03
 STEP TIME COMPLETED       0.503    ,  TOTAL TIME COMPLETED        0.503    


  INCREMENT    10 STARTS. ATTEMPT NUMBER  1, TIME INCREMENT  0.256    
 
	UNSYMMETRIC DIRECT SPARSE SOLVER RUNNING ON
 	1 HOST x 1 MPI RANK PER HOST x 10 THREADS PER RANK
        NUMBER OF EQUATIONS:  205488
        NUMBER OF RHS:        1
        NUMBER OF FLOPS:      9.047e+10
        SOLVER ELAPSED TIME:  494ms

                    2 SEVERE DISCONTINUITIES OCCURRED DURING THIS ITERATION.
                    2 POINTS CHANGED FROM OPEN TO CLOSED

               CONVERGENCE CHECKS FOR SEVERE DISCONTINUITY ITERATION     1

   MAX. PENETRATION ERROR 4.18782E-12 AT NODE ANCHOR-1.66559 OF CONTACT PAIR 
   (GENERAL_CONTACT_EDGES_1,GENERAL_CONTACT_FACES_4)
   MAX. CONTACT FORCE ERROR 356.489E-09   AT NODE ANCHOR-1.66559 OF CONTACT 
   PAIR (GENERAL_CONTACT_EDGES_1,GENERAL_CONTACT_FACES_4)
          THE CONTACT CONSTRAINT ERRORS ARE WITHIN THE TOLERANCES.

 AVERAGE FORCE                      0.305       TIME AVG. FORCE       8.736E-02
 LARGEST SCALED RESIDUAL FORCE      7.744E-09   AT NODE      66737   DOF  2
   INSTANCE: ANCHOR-1                                                                        
  CORRESPONDING RESIDUAL FORCE      7.744E-09
 LARGEST INCREMENT OF DISP.         4.271E-03   AT NODE          1   DOF  2
   INSTANCE: ANCHOR-1                                                                        
 LARGEST CORRECTION TO DISP.        2.824E-07   AT NODE      10312   DOF  2
   INSTANCE: CONCRETE-1                                                                      
          THE FORCE     EQUILIBRIUM EQUATIONS HAVE CONVERGED
          TIME INCREMENT MAY NOW INCREASE TO    0.384    

 ITERATION SUMMARY FOR THE INCREMENT:   1 TOTAL ITERATIONS, OF WHICH
   1 ARE SEVERE DISCONTINUITY ITERATIONS AND  0 ARE EQUILIBRIUM ITERATIONS.

 TIME INCREMENT COMPLETED  0.256    ,  FRACTION OF STEP COMPLETED  1.265E-02
 STEP TIME COMPLETED       0.759    ,  TOTAL TIME COMPLETED        0.759    


  INCREMENT    11 STARTS. ATTEMPT NUMBER  1, TIME INCREMENT  0.384    
 
	UNSYMMETRIC DIRECT SPARSE SOLVER RUNNING ON
 	1 HOST x 1 MPI RANK PER HOST x 10 THREADS PER RANK
        NUMBER OF EQUATIONS:  205488
        NUMBER OF RHS:        1
        NUMBER OF FLOPS:      9.515e+10
        SOLVER ELAPSED TIME:  514ms

                    4 SEVERE DISCONTINUITIES OCCURRED DURING THIS ITERATION.
                    4 POINTS CHANGED FROM OPEN TO CLOSED

               CONVERGENCE CHECKS FOR SEVERE DISCONTINUITY ITERATION     1

   MAX. PENETRATION ERROR 13.5788E-12  AT NODE ANCHOR-1.419 OF CONTACT PAIR 
   (GENERAL_CONTACT_EDGES_1,GENERAL_CONTACT_FACES_4)
   MAX. CONTACT FORCE ERROR 567.664E-09   AT NODE ANCHOR-1.419 OF CONTACT PAIR 
   (GENERAL_CONTACT_EDGES_1,GENERAL_CONTACT_FACES_4)
          THE CONTACT CONSTRAINT ERRORS ARE WITHIN THE TOLERANCES.

 AVERAGE FORCE                      0.458       TIME AVG. FORCE       0.121    
 LARGEST SCALED RESIDUAL FORCE      1.735E-08   AT NODE      66737   DOF  2
   INSTANCE: ANCHOR-1                                                                        
  CORRESPONDING RESIDUAL FORCE      1.735E-08
 LARGEST INCREMENT OF DISP.         6.407E-03   AT NODE          1   DOF  2
   INSTANCE: ANCHOR-1                                                                        
 LARGEST CORRECTION TO DISP.       -2.821E-07   AT NODE      38644   DOF  1
   INSTANCE: CONCRETE-1                                                                      
          THE FORCE     EQUILIBRIUM EQUATIONS HAVE CONVERGED
          TIME INCREMENT MAY NOW INCREASE TO    0.500    

 ITERATION SUMMARY FOR THE INCREMENT:   1 TOTAL ITERATIONS, OF WHICH
   1 ARE SEVERE DISCONTINUITY ITERATIONS AND  0 ARE EQUILIBRIUM ITERATIONS.

 TIME INCREMENT COMPLETED  0.384    ,  FRACTION OF STEP COMPLETED  1.906E-02
 STEP TIME COMPLETED        1.14    ,  TOTAL TIME COMPLETED         1.14    


  INCREMENT    12 STARTS. ATTEMPT NUMBER  1, TIME INCREMENT  0.500    
 
	UNSYMMETRIC DIRECT SPARSE SOLVER RUNNING ON
 	1 HOST x 1 MPI RANK PER HOST x 10 THREADS PER RANK
        NUMBER OF EQUATIONS:  205488
        NUMBER OF RHS:        1
        NUMBER OF FLOPS:      9.515e+10
        SOLVER ELAPSED TIME:  502ms

                    8 SEVERE DISCONTINUITIES OCCURRED DURING THIS ITERATION.
                    8 POINTS CHANGED FROM OPEN TO CLOSED

               CONVERGENCE CHECKS FOR SEVERE DISCONTINUITY ITERATION     1

   MAX. PENETRATION ERROR 24.2163E-12  AT NODE CONCRETE-1.1639 OF CONTACT PAIR 
   (GENERAL_CONTACT_EDGES_3,GENERAL_CONTACT_FACES_2)
   MAX. CONTACT FORCE ERROR 283.739E-09   AT NODE ANCHOR-1.26 OF CONTACT PAIR 
   (GENERAL_CONTACT_EDGES_2,GENERAL_CONTACT_FACES_3)
          THE CONTACT CONSTRAINT ERRORS ARE WITHIN THE TOLERANCES.

 AVERAGE FORCE                      0.658       TIME AVG. FORCE       0.166    
 LARGEST SCALED RESIDUAL FORCE     -6.377E-07   AT NODE      66586   DOF  1
   INSTANCE: ANCHOR-1                                                                        
  CORRESPONDING RESIDUAL FORCE     -6.377E-07
 LARGEST INCREMENT OF DISP.         8.333E-03   AT NODE          1   DOF  2
   INSTANCE: ANCHOR-1                                                                        
 LARGEST CORRECTION TO DISP.        1.095E-06   AT NODE        419   DOF  2
   INSTANCE: ANCHOR-1                                                                        
          THE FORCE     EQUILIBRIUM EQUATIONS HAVE CONVERGED

 ITERATION SUMMARY FOR THE INCREMENT:   1 TOTAL ITERATIONS, OF WHICH
   1 ARE SEVERE DISCONTINUITY ITERATIONS AND  0 ARE EQUILIBRIUM ITERATIONS.

 TIME INCREMENT COMPLETED  0.500    ,  FRACTION OF STEP COMPLETED  2.739E-02
 STEP TIME COMPLETED        1.64    ,  TOTAL TIME COMPLETED         1.64    


  INCREMENT    13 STARTS. ATTEMPT NUMBER  1, TIME INCREMENT  0.500    
 
	UNSYMMETRIC DIRECT SPARSE SOLVER RUNNING ON
 	1 HOST x 1 MPI RANK PER HOST x 10 THREADS PER RANK
        NUMBER OF EQUATIONS:  205488
        NUMBER OF RHS:        1
        NUMBER OF FLOPS:      9.515e+10
        SOLVER ELAPSED TIME:  507ms

                   16 SEVERE DISCONTINUITIES OCCURRED DURING THIS ITERATION.
                   16 POINTS CHANGED FROM OPEN TO CLOSED

               CONVERGENCE CHECKS FOR SEVERE DISCONTINUITY ITERATION     1

   MAX. PENETRATION ERROR 7.43334E-12 AT NODE CONCRETE-1.25246 OF CONTACT PAIR 
   (GENERAL_CONTACT_EDGES_3,GENERAL_CONTACT_FACES_2)
   MAX. CONTACT FORCE ERROR 173.034E-09   AT NODE CONCRETE-1.25246 OF CONTACT 
   PAIR (GENERAL_CONTACT_EDGES_3,GENERAL_CONTACT_FACES_2)
          THE CONTACT CONSTRAINT ERRORS ARE WITHIN THE TOLERANCES.

 AVERAGE FORCE                      0.858       TIME AVG. FORCE       0.219    
 LARGEST SCALED RESIDUAL FORCE     -2.470E-06   AT NODE      66722   DOF  1
   INSTANCE: ANCHOR-1                                                                        
  CORRESPONDING RESIDUAL FORCE     -2.470E-06
 LARGEST INCREMENT OF DISP.         8.333E-03   AT NODE          1   DOF  2
   INSTANCE: ANCHOR-1                                                                        
 LARGEST CORRECTION TO DISP.        1.818E-06   AT NODE        474   DOF  2
   INSTANCE: ANCHOR-1                                                                        
          THE FORCE     EQUILIBRIUM EQUATIONS HAVE CONVERGED

 ITERATION SUMMARY FOR THE INCREMENT:   1 TOTAL ITERATIONS, OF WHICH
   1 ARE SEVERE DISCONTINUITY ITERATIONS AND  0 ARE EQUILIBRIUM ITERATIONS.

 TIME INCREMENT COMPLETED  0.500    ,  FRACTION OF STEP COMPLETED  3.572E-02
 STEP TIME COMPLETED        2.14    ,  TOTAL TIME COMPLETED         2.14    


  INCREMENT    14 STARTS. ATTEMPT NUMBER  1, TIME INCREMENT  0.500    
 
	UNSYMMETRIC DIRECT SPARSE SOLVER RUNNING ON
 	1 HOST x 1 MPI RANK PER HOST x 10 THREADS PER RANK
        NUMBER OF EQUATIONS:  205488
        NUMBER OF RHS:        1
        NUMBER OF FLOPS:      9.515e+10
        SOLVER ELAPSED TIME:  502ms

               CONVERGENCE CHECKS FOR EQUILIBRIUM ITERATION     1

   MAX. PENETRATION ERROR -144.265E-15   AT NODE CONCRETE-1.1639 OF CONTACT 
   PAIR (GENERAL_CONTACT_FACES_3,GENERAL_CONTACT_FACES_2)
   MAX. CONTACT FORCE ERROR 1.21980E-09 AT NODE CONCRETE-1.38632 OF CONTACT 
   PAIR (GENERAL_CONTACT_FACES_4,GENERAL_CONTACT_FACES_1)
          THE CONTACT CONSTRAINTS HAVE CONVERGED.

 AVERAGE FORCE                       1.06       TIME AVG. FORCE       0.279    
 LARGEST SCALED RESIDUAL FORCE     -3.209E-07   AT NODE      66559   DOF  2
   INSTANCE: ANCHOR-1                                                                        
  CORRESPONDING RESIDUAL FORCE     -3.209E-07
 LARGEST INCREMENT OF DISP.         8.333E-03   AT NODE          1   DOF  2
   INSTANCE: ANCHOR-1                                                                        
 LARGEST CORRECTION TO DISP.        6.229E-07   AT NODE      10527   DOF  2
   INSTANCE: CONCRETE-1                                                                      
          THE FORCE     EQUILIBRIUM EQUATIONS HAVE CONVERGED

 ITERATION SUMMARY FOR THE INCREMENT:   1 TOTAL ITERATIONS, OF WHICH
   0 ARE SEVERE DISCONTINUITY ITERATIONS AND  1 ARE EQUILIBRIUM ITERATIONS.

 TIME INCREMENT COMPLETED  0.500    ,  FRACTION OF STEP COMPLETED  4.406E-02
 STEP TIME COMPLETED        2.64    ,  TOTAL TIME COMPLETED         2.64    


  INCREMENT    15 STARTS. ATTEMPT NUMBER  1, TIME INCREMENT  0.500    
 
	UNSYMMETRIC DIRECT SPARSE SOLVER RUNNING ON
 	1 HOST x 1 MPI RANK PER HOST x 10 THREADS PER RANK
        NUMBER OF EQUATIONS:  205488
        NUMBER OF RHS:        1
        NUMBER OF FLOPS:      9.515e+10
        SOLVER ELAPSED TIME:  540ms

               CONVERGENCE CHECKS FOR EQUILIBRIUM ITERATION     1

   MAX. PENETRATION ERROR -59.1722E-15  AT NODE CONCRETE-1.25310 OF CONTACT 
   PAIR (GENERAL_CONTACT_FACES_4,GENERAL_CONTACT_FACES_1)
   MAX. CONTACT FORCE ERROR 999.310E-12   AT NODE CONCRETE-1.38536 OF CONTACT 
   PAIR (GENERAL_CONTACT_FACES_3,GENERAL_CONTACT_FACES_2)
          THE CONTACT CONSTRAINTS HAVE CONVERGED.

 AVERAGE FORCE                       1.26       TIME AVG. FORCE       0.345    
 LARGEST SCALED RESIDUAL FORCE      6.485E-08   AT NODE      66573   DOF  1
   INSTANCE: ANCHOR-1                                                                        
  CORRESPONDING RESIDUAL FORCE      6.485E-08
 LARGEST INCREMENT OF DISP.         8.333E-03   AT NODE          1   DOF  2
   INSTANCE: ANCHOR-1                                                                        
 LARGEST CORRECTION TO DISP.        4.631E-07   AT NODE      38523   DOF  1
   INSTANCE: CONCRETE-1                                                                      
          THE FORCE     EQUILIBRIUM EQUATIONS HAVE CONVERGED

 ITERATION SUMMARY FOR THE INCREMENT:   1 TOTAL ITERATIONS, OF WHICH
   0 ARE SEVERE DISCONTINUITY ITERATIONS AND  1 ARE EQUILIBRIUM ITERATIONS.

 TIME INCREMENT COMPLETED  0.500    ,  FRACTION OF STEP COMPLETED  5.239E-02
 STEP TIME COMPLETED        3.14    ,  TOTAL TIME COMPLETED         3.14    


  INCREMENT    16 STARTS. ATTEMPT NUMBER  1, TIME INCREMENT  0.500    
 
	UNSYMMETRIC DIRECT SPARSE SOLVER RUNNING ON
 	1 HOST x 1 MPI RANK PER HOST x 10 THREADS PER RANK
        NUMBER OF EQUATIONS:  205488
        NUMBER OF RHS:        1
        NUMBER OF FLOPS:      9.515e+10
        SOLVER ELAPSED TIME:  533ms

               CONVERGENCE CHECKS FOR EQUILIBRIUM ITERATION     1

   MAX. PENETRATION ERROR -50.2316E-15  AT NODE CONCRETE-1.10583 OF CONTACT 
   PAIR (GENERAL_CONTACT_FACES_3,GENERAL_CONTACT_FACES_2)
   MAX. CONTACT FORCE ERROR 652.746E-12   AT NODE CONCRETE-1.38538 OF CONTACT 
   PAIR (GENERAL_CONTACT_FACES_3,GENERAL_CONTACT_FACES_2)
          THE CONTACT CONSTRAINTS HAVE CONVERGED.

 AVERAGE FORCE                       1.46       TIME AVG. FORCE       0.415    
 LARGEST SCALED RESIDUAL FORCE     -6.388E-08   AT NODE      66559   DOF  2
   INSTANCE: ANCHOR-1                                                                        
  CORRESPONDING RESIDUAL FORCE     -6.388E-08
 LARGEST INCREMENT OF DISP.         8.333E-03   AT NODE          1   DOF  2
   INSTANCE: ANCHOR-1                                                                        
 LARGEST CORRECTION TO DISP.        4.965E-07   AT NODE      10603   DOF  1
   INSTANCE: CONCRETE-1                                                                      
          THE FORCE     EQUILIBRIUM EQUATIONS HAVE CONVERGED

 ITERATION SUMMARY FOR THE INCREMENT:   1 TOTAL ITERATIONS, OF WHICH
   0 ARE SEVERE DISCONTINUITY ITERATIONS AND  1 ARE EQUILIBRIUM ITERATIONS.

 TIME INCREMENT COMPLETED  0.500    ,  FRACTION OF STEP COMPLETED  6.072E-02
 STEP TIME COMPLETED        3.64    ,  TOTAL TIME COMPLETED         3.64    


  INCREMENT    17 STARTS. ATTEMPT NUMBER  1, TIME INCREMENT  0.500    
 
	UNSYMMETRIC DIRECT SPARSE SOLVER RUNNING ON
 	1 HOST x 1 MPI RANK PER HOST x 10 THREADS PER RANK
        NUMBER OF EQUATIONS:  205488
        NUMBER OF RHS:        1
        NUMBER OF FLOPS:      9.515e+10
        SOLVER ELAPSED TIME:  519ms

               CONVERGENCE CHECKS FOR EQUILIBRIUM ITERATION     1

   MAX. PENETRATION ERROR 50.0620E-15  AT NODE CONCRETE-1.38643 OF CONTACT PAIR 
   (GENERAL_CONTACT_FACES_4,GENERAL_CONTACT_FACES_1)
   MAX. CONTACT FORCE ERROR 824.782E-12   AT NODE CONCRETE-1.38659 OF CONTACT 
   PAIR (GENERAL_CONTACT_FACES_4,GENERAL_CONTACT_FACES_1)
          THE CONTACT CONSTRAINTS HAVE CONVERGED.

 AVERAGE FORCE                       1.67       TIME AVG. FORCE       0.488    
 LARGEST SCALED RESIDUAL FORCE      3.463E-08   AT NODE      66737   DOF  2
   INSTANCE: ANCHOR-1                                                                        
  CORRESPONDING RESIDUAL FORCE      3.463E-08
 LARGEST INCREMENT OF DISP.         8.333E-03   AT NODE          1   DOF  2
   INSTANCE: ANCHOR-1                                                                        
 LARGEST CORRECTION TO DISP.        4.616E-07   AT NODE      38523   DOF  1
   INSTANCE: CONCRETE-1                                                                      
          THE FORCE     EQUILIBRIUM EQUATIONS HAVE CONVERGED

 ITERATION SUMMARY FOR THE INCREMENT:   1 TOTAL ITERATIONS, OF WHICH
   0 ARE SEVERE DISCONTINUITY ITERATIONS AND  1 ARE EQUILIBRIUM ITERATIONS.

 TIME INCREMENT COMPLETED  0.500    ,  FRACTION OF STEP COMPLETED  6.906E-02
 STEP TIME COMPLETED        4.14    ,  TOTAL TIME COMPLETED         4.14    


  INCREMENT    18 STARTS. ATTEMPT NUMBER  1, TIME INCREMENT  0.500    
 
	UNSYMMETRIC DIRECT SPARSE SOLVER RUNNING ON
 	1 HOST x 1 MPI RANK PER HOST x 10 THREADS PER RANK
        NUMBER OF EQUATIONS:  205488
        NUMBER OF RHS:        1
        NUMBER OF FLOPS:      9.515e+10
        SOLVER ELAPSED TIME:  518ms

                    4 SEVERE DISCONTINUITIES OCCURRED DURING THIS ITERATION.
                    4 POINTS CHANGED FROM OPEN TO CLOSED

               CONVERGENCE CHECKS FOR SEVERE DISCONTINUITY ITERATION     1

   MAX. PENETRATION ERROR 1.84778E-12 AT NODE ANCHOR-1.39 OF CONTACT PAIR 
   (GENERAL_CONTACT_EDGES_2,GENERAL_CONTACT_FACES_3)
   MAX. CONTACT FORCE ERROR 52.1527E-09  AT NODE ANCHOR-1.39 OF CONTACT PAIR 
   (GENERAL_CONTACT_EDGES_2,GENERAL_CONTACT_FACES_3)
          THE CONTACT CONSTRAINT ERRORS ARE WITHIN THE TOLERANCES.

 AVERAGE FORCE                       1.87       TIME AVG. FORCE       0.565    
 LARGEST SCALED RESIDUAL FORCE      3.453E-08   AT NODE      66737   DOF  2
   INSTANCE: ANCHOR-1                                                                        
  CORRESPONDING RESIDUAL FORCE      3.453E-08
 LARGEST INCREMENT OF DISP.         8.333E-03   AT NODE          1   DOF  2
   INSTANCE: ANCHOR-1                                                                        
 LARGEST CORRECTION TO DISP.        4.651E-07   AT NODE      10603   DOF  1
   INSTANCE: CONCRETE-1                                                                      
          THE FORCE     EQUILIBRIUM EQUATIONS HAVE CONVERGED

 ITERATION SUMMARY FOR THE INCREMENT:   1 TOTAL ITERATIONS, OF WHICH
   1 ARE SEVERE DISCONTINUITY ITERATIONS AND  0 ARE EQUILIBRIUM ITERATIONS.

 TIME INCREMENT COMPLETED  0.500    ,  FRACTION OF STEP COMPLETED  7.739E-02
 STEP TIME COMPLETED        4.64    ,  TOTAL TIME COMPLETED         4.64    


  INCREMENT    19 STARTS. ATTEMPT NUMBER  1, TIME INCREMENT  0.500    
 
	UNSYMMETRIC DIRECT SPARSE SOLVER RUNNING ON
 	1 HOST x 1 MPI RANK PER HOST x 10 THREADS PER RANK
        NUMBER OF EQUATIONS:  205488
        NUMBER OF RHS:        1
        NUMBER OF FLOPS:      9.515e+10
        SOLVER ELAPSED TIME:  516ms

               CONVERGENCE CHECKS FOR EQUILIBRIUM ITERATION     1

   MAX. PENETRATION ERROR -33.3879E-15  AT NODE CONCRETE-1.10594 OF CONTACT 
   PAIR (GENERAL_CONTACT_FACES_3,GENERAL_CONTACT_FACES_2)
   MAX. CONTACT FORCE ERROR -660.910E-12   AT NODE CONCRETE-1.38662 OF CONTACT 
   PAIR (GENERAL_CONTACT_FACES_4,GENERAL_CONTACT_FACES_1)
          THE CONTACT CONSTRAINTS HAVE CONVERGED.

 AVERAGE FORCE                       2.07       TIME AVG. FORCE       0.644    
 LARGEST SCALED RESIDUAL FORCE      3.451E-08   AT NODE      66737   DOF  2
   INSTANCE: ANCHOR-1                                                                        
  CORRESPONDING RESIDUAL FORCE      3.451E-08
 LARGEST INCREMENT OF DISP.         8.333E-03   AT NODE          1   DOF  2
   INSTANCE: ANCHOR-1                                                                        
 LARGEST CORRECTION TO DISP.        4.465E-07   AT NODE      10603   DOF  1
   INSTANCE: CONCRETE-1                                                                      
          THE FORCE     EQUILIBRIUM EQUATIONS HAVE CONVERGED

 ITERATION SUMMARY FOR THE INCREMENT:   1 TOTAL ITERATIONS, OF WHICH
   0 ARE SEVERE DISCONTINUITY ITERATIONS AND  1 ARE EQUILIBRIUM ITERATIONS.

 TIME INCREMENT COMPLETED  0.500    ,  FRACTION OF STEP COMPLETED  8.572E-02
 STEP TIME COMPLETED        5.14    ,  TOTAL TIME COMPLETED         5.14    


  INCREMENT    20 STARTS. ATTEMPT NUMBER  1, TIME INCREMENT  0.500    
 
	UNSYMMETRIC DIRECT SPARSE SOLVER RUNNING ON
 	1 HOST x 1 MPI RANK PER HOST x 10 THREADS PER RANK
        NUMBER OF EQUATIONS:  205488
        NUMBER OF RHS:        1
        NUMBER OF FLOPS:      9.515e+10
        SOLVER ELAPSED TIME:  509ms

                    4 SEVERE DISCONTINUITIES OCCURRED DURING THIS ITERATION.
                    4 POINTS CHANGED FROM OPEN TO CLOSED

               CONVERGENCE CHECKS FOR SEVERE DISCONTINUITY ITERATION     1

   MAX. PENETRATION ERROR 712.805E-15   AT NODE CONCRETE-1.4759 OF CONTACT PAIR 
   (GENERAL_CONTACT_EDGES_3,GENERAL_CONTACT_FACES_2)
   MAX. CONTACT FORCE ERROR 17.6052E-09  AT NODE CONCRETE-1.4759 OF CONTACT 
   PAIR (GENERAL_CONTACT_EDGES_3,GENERAL_CONTACT_FACES_2)
          THE CONTACT CONSTRAINT ERRORS ARE WITHIN THE TOLERANCES.

 AVERAGE FORCE                       2.27       TIME AVG. FORCE       0.726    
 LARGEST SCALED RESIDUAL FORCE      3.443E-08   AT NODE      66737   DOF  2
   INSTANCE: ANCHOR-1                                                                        
  CORRESPONDING RESIDUAL FORCE      3.443E-08
 LARGEST INCREMENT OF DISP.         8.333E-03   AT NODE          1   DOF  2
   INSTANCE: ANCHOR-1                                                                        
 LARGEST CORRECTION TO DISP.        4.422E-07   AT NODE      10603   DOF  1
   INSTANCE: CONCRETE-1                                                                      
          THE FORCE     EQUILIBRIUM EQUATIONS HAVE CONVERGED

 ITERATION SUMMARY FOR THE INCREMENT:   1 TOTAL ITERATIONS, OF WHICH
   1 ARE SEVERE DISCONTINUITY ITERATIONS AND  0 ARE EQUILIBRIUM ITERATIONS.

 TIME INCREMENT COMPLETED  0.500    ,  FRACTION OF STEP COMPLETED  9.406E-02
 STEP TIME COMPLETED        5.64    ,  TOTAL TIME COMPLETED         5.64    


  INCREMENT    21 STARTS. ATTEMPT NUMBER  1, TIME INCREMENT  0.500    
 
	UNSYMMETRIC DIRECT SPARSE SOLVER RUNNING ON
 	1 HOST x 1 MPI RANK PER HOST x 10 THREADS PER RANK
        NUMBER OF EQUATIONS:  205488
        NUMBER OF RHS:        1
        NUMBER OF FLOPS:      9.515e+10
        SOLVER ELAPSED TIME:  524ms

               CONVERGENCE CHECKS FOR EQUILIBRIUM ITERATION     1

   MAX. PENETRATION ERROR -53.2475E-15  AT NODE CONCRETE-1.1647 OF CONTACT PAIR 
   (GENERAL_CONTACT_FACES_4,GENERAL_CONTACT_FACES_1)
   MAX. CONTACT FORCE ERROR 693.337E-12   AT NODE CONCRETE-1.38667 OF CONTACT 
   PAIR (GENERAL_CONTACT_FACES_4,GENERAL_CONTACT_FACES_1)
          THE CONTACT CONSTRAINTS HAVE CONVERGED.

 AVERAGE FORCE                       2.48       TIME AVG. FORCE       0.809    
 LARGEST SCALED RESIDUAL FORCE      3.439E-08   AT NODE      66737   DOF  2
   INSTANCE: ANCHOR-1                                                                        
  CORRESPONDING RESIDUAL FORCE      3.439E-08
 LARGEST INCREMENT OF DISP.         8.333E-03   AT NODE          1   DOF  2
   INSTANCE: ANCHOR-1                                                                        
 LARGEST CORRECTION TO DISP.        4.297E-07   AT NODE      10603   DOF  1
   INSTANCE: CONCRETE-1                                                                      
          THE FORCE     EQUILIBRIUM EQUATIONS HAVE CONVERGED

 ITERATION SUMMARY FOR THE INCREMENT:   1 TOTAL ITERATIONS, OF WHICH
   0 ARE SEVERE DISCONTINUITY ITERATIONS AND  1 ARE EQUILIBRIUM ITERATIONS.

 TIME INCREMENT COMPLETED  0.500    ,  FRACTION OF STEP COMPLETED  0.102    
 STEP TIME COMPLETED        6.14    ,  TOTAL TIME COMPLETED         6.14    


  INCREMENT    22 STARTS. ATTEMPT NUMBER  1, TIME INCREMENT  0.500    
 
	UNSYMMETRIC DIRECT SPARSE SOLVER RUNNING ON
 	1 HOST x 1 MPI RANK PER HOST x 10 THREADS PER RANK
        NUMBER OF EQUATIONS:  205488
        NUMBER OF RHS:        1
        NUMBER OF FLOPS:      9.515e+10
        SOLVER ELAPSED TIME:  531ms

               CONVERGENCE CHECKS FOR EQUILIBRIUM ITERATION     1

   MAX. PENETRATION ERROR 43.4148E-15  AT NODE CONCRETE-1.38651 OF CONTACT PAIR 
   (GENERAL_CONTACT_FACES_4,GENERAL_CONTACT_FACES_1)
   MAX. CONTACT FORCE ERROR 650.814E-12   AT NODE CONCRETE-1.38668 OF CONTACT 
   PAIR (GENERAL_CONTACT_FACES_4,GENERAL_CONTACT_FACES_1)
          THE CONTACT CONSTRAINTS HAVE CONVERGED.

 AVERAGE FORCE                       2.68       TIME AVG. FORCE       0.894    
 LARGEST SCALED RESIDUAL FORCE      3.432E-08   AT NODE      66737   DOF  2
   INSTANCE: ANCHOR-1                                                                        
  CORRESPONDING RESIDUAL FORCE      3.432E-08
 LARGEST INCREMENT OF DISP.         8.333E-03   AT NODE          1   DOF  2
   INSTANCE: ANCHOR-1                                                                        
 LARGEST CORRECTION TO DISP.        4.229E-07   AT NODE      10603   DOF  1
   INSTANCE: CONCRETE-1                                                                      
          THE FORCE     EQUILIBRIUM EQUATIONS HAVE CONVERGED

 ITERATION SUMMARY FOR THE INCREMENT:   1 TOTAL ITERATIONS, OF WHICH
   0 ARE SEVERE DISCONTINUITY ITERATIONS AND  1 ARE EQUILIBRIUM ITERATIONS.

 TIME INCREMENT COMPLETED  0.500    ,  FRACTION OF STEP COMPLETED  0.111    
 STEP TIME COMPLETED        6.64    ,  TOTAL TIME COMPLETED         6.64    


  INCREMENT    23 STARTS. ATTEMPT NUMBER  1, TIME INCREMENT  0.500    
 
	UNSYMMETRIC DIRECT SPARSE SOLVER RUNNING ON
 	1 HOST x 1 MPI RANK PER HOST x 10 THREADS PER RANK
        NUMBER OF EQUATIONS:  205488
        NUMBER OF RHS:        1
        NUMBER OF FLOPS:      9.515e+10
        SOLVER ELAPSED TIME:  532ms

               CONVERGENCE CHECKS FOR EQUILIBRIUM ITERATION     1

   MAX. PENETRATION ERROR 55.1658E-15  AT NODE CONCRETE-1.25295 OF CONTACT PAIR 
   (GENERAL_CONTACT_FACES_4,GENERAL_CONTACT_FACES_1)
   MAX. CONTACT FORCE ERROR 1.07067E-09 AT NODE CONCRETE-1.38657 OF CONTACT 
   PAIR (GENERAL_CONTACT_FACES_4,GENERAL_CONTACT_FACES_1)
          THE CONTACT CONSTRAINTS HAVE CONVERGED.

 AVERAGE FORCE                       2.88       TIME AVG. FORCE       0.981    
 LARGEST SCALED RESIDUAL FORCE      3.426E-08   AT NODE      66737   DOF  2
   INSTANCE: ANCHOR-1                                                                        
  CORRESPONDING RESIDUAL FORCE      3.426E-08
 LARGEST INCREMENT OF DISP.         8.333E-03   AT NODE          1   DOF  2
   INSTANCE: ANCHOR-1                                                                        
 LARGEST CORRECTION TO DISP.        4.130E-07   AT NODE      10603   DOF  1
   INSTANCE: CONCRETE-1                                                                      
          THE FORCE     EQUILIBRIUM EQUATIONS HAVE CONVERGED

 ITERATION SUMMARY FOR THE INCREMENT:   1 TOTAL ITERATIONS, OF WHICH
   0 ARE SEVERE DISCONTINUITY ITERATIONS AND  1 ARE EQUILIBRIUM ITERATIONS.

 TIME INCREMENT COMPLETED  0.500    ,  FRACTION OF STEP COMPLETED  0.119    
 STEP TIME COMPLETED        7.14    ,  TOTAL TIME COMPLETED         7.14    


  INCREMENT    24 STARTS. ATTEMPT NUMBER  1, TIME INCREMENT  0.500    
 
	UNSYMMETRIC DIRECT SPARSE SOLVER RUNNING ON
 	1 HOST x 1 MPI RANK PER HOST x 10 THREADS PER RANK
        NUMBER OF EQUATIONS:  205488
        NUMBER OF RHS:        1
        NUMBER OF FLOPS:      9.515e+10
        SOLVER ELAPSED TIME:  617ms

               CONVERGENCE CHECKS FOR EQUILIBRIUM ITERATION     1

   MAX. PENETRATION ERROR -42.3053E-15  AT NODE CONCRETE-1.25298 OF CONTACT 
   PAIR (GENERAL_CONTACT_FACES_4,GENERAL_CONTACT_FACES_1)
   MAX. CONTACT FORCE ERROR 672.161E-12   AT NODE CONCRETE-1.38541 OF CONTACT 
   PAIR (GENERAL_CONTACT_FACES_3,GENERAL_CONTACT_FACES_2)
          THE CONTACT CONSTRAINTS HAVE CONVERGED.

 AVERAGE FORCE                       3.09       TIME AVG. FORCE        1.07    
 LARGEST SCALED RESIDUAL FORCE      3.420E-08   AT NODE      66737   DOF  2
   INSTANCE: ANCHOR-1                                                                        
  CORRESPONDING RESIDUAL FORCE      3.420E-08
 LARGEST INCREMENT OF DISP.         8.333E-03   AT NODE          1   DOF  2
   INSTANCE: ANCHOR-1                                                                        
 LARGEST CORRECTION TO DISP.        4.055E-07   AT NODE      10603   DOF  1
   INSTANCE: CONCRETE-1                                                                      
          THE FORCE     EQUILIBRIUM EQUATIONS HAVE CONVERGED

 ITERATION SUMMARY FOR THE INCREMENT:   1 TOTAL ITERATIONS, OF WHICH
   0 ARE SEVERE DISCONTINUITY ITERATIONS AND  1 ARE EQUILIBRIUM ITERATIONS.

 TIME INCREMENT COMPLETED  0.500    ,  FRACTION OF STEP COMPLETED  0.127    
 STEP TIME COMPLETED        7.64    ,  TOTAL TIME COMPLETED         7.64    


  INCREMENT    25 STARTS. ATTEMPT NUMBER  1, TIME INCREMENT  0.500    
 
	UNSYMMETRIC DIRECT SPARSE SOLVER RUNNING ON
 	1 HOST x 1 MPI RANK PER HOST x 10 THREADS PER RANK
        NUMBER OF EQUATIONS:  205488
        NUMBER OF RHS:        1
        NUMBER OF FLOPS:      9.515e+10
        SOLVER ELAPSED TIME:  576ms

               CONVERGENCE CHECKS FOR EQUILIBRIUM ITERATION     1

   MAX. PENETRATION ERROR 49.8035E-15  AT NODE CONCRETE-1.25231 OF CONTACT PAIR 
   (GENERAL_CONTACT_FACES_3,GENERAL_CONTACT_FACES_2)
   MAX. CONTACT FORCE ERROR 647.386E-12   AT NODE CONCRETE-1.25231 OF CONTACT 
   PAIR (GENERAL_CONTACT_FACES_3,GENERAL_CONTACT_FACES_2)
          THE CONTACT CONSTRAINTS HAVE CONVERGED.

 AVERAGE FORCE                       3.29       TIME AVG. FORCE        1.16    
 LARGEST SCALED RESIDUAL FORCE      3.414E-08   AT NODE      66737   DOF  2
   INSTANCE: ANCHOR-1                                                                        
  CORRESPONDING RESIDUAL FORCE      3.414E-08
 LARGEST INCREMENT OF DISP.         8.333E-03   AT NODE          1   DOF  2
   INSTANCE: ANCHOR-1                                                                        
 LARGEST CORRECTION TO DISP.        3.970E-07   AT NODE      10603   DOF  1
   INSTANCE: CONCRETE-1                                                                      
          THE FORCE     EQUILIBRIUM EQUATIONS HAVE CONVERGED

 ITERATION SUMMARY FOR THE INCREMENT:   1 TOTAL ITERATIONS, OF WHICH
   0 ARE SEVERE DISCONTINUITY ITERATIONS AND  1 ARE EQUILIBRIUM ITERATIONS.

 TIME INCREMENT COMPLETED  0.500    ,  FRACTION OF STEP COMPLETED  0.136    
 STEP TIME COMPLETED        8.14    ,  TOTAL TIME COMPLETED         8.14    


  INCREMENT    26 STARTS. ATTEMPT NUMBER  1, TIME INCREMENT  0.500    
 
	UNSYMMETRIC DIRECT SPARSE SOLVER RUNNING ON
 	1 HOST x 1 MPI RANK PER HOST x 10 THREADS PER RANK
        NUMBER OF EQUATIONS:  205488
        NUMBER OF RHS:        1
        NUMBER OF FLOPS:      9.515e+10
        SOLVER ELAPSED TIME:  560ms

               CONVERGENCE CHECKS FOR EQUILIBRIUM ITERATION     1

   MAX. PENETRATION ERROR -33.9867E-15  AT NODE CONCRETE-1.25305 OF CONTACT 
   PAIR (GENERAL_CONTACT_FACES_4,GENERAL_CONTACT_FACES_1)
   MAX. CONTACT FORCE ERROR 829.670E-12   AT NODE CONCRETE-1.38543 OF CONTACT 
   PAIR (GENERAL_CONTACT_FACES_3,GENERAL_CONTACT_FACES_2)
          THE CONTACT CONSTRAINTS HAVE CONVERGED.

 AVERAGE FORCE                       3.49       TIME AVG. FORCE        1.25    
 LARGEST SCALED RESIDUAL FORCE      3.407E-08   AT NODE      66737   DOF  2
   INSTANCE: ANCHOR-1                                                                        
  CORRESPONDING RESIDUAL FORCE      3.407E-08
 LARGEST INCREMENT OF DISP.         8.333E-03   AT NODE          1   DOF  2
   INSTANCE: ANCHOR-1                                                                        
 LARGEST CORRECTION TO DISP.        3.897E-07   AT NODE      10603   DOF  1
   INSTANCE: CONCRETE-1                                                                      
          THE FORCE     EQUILIBRIUM EQUATIONS HAVE CONVERGED

 ITERATION SUMMARY FOR THE INCREMENT:   1 TOTAL ITERATIONS, OF WHICH
   0 ARE SEVERE DISCONTINUITY ITERATIONS AND  1 ARE EQUILIBRIUM ITERATIONS.

 TIME INCREMENT COMPLETED  0.500    ,  FRACTION OF STEP COMPLETED  0.144    
 STEP TIME COMPLETED        8.64    ,  TOTAL TIME COMPLETED         8.64    


  INCREMENT    27 STARTS. ATTEMPT NUMBER  1, TIME INCREMENT  0.500    
 
	UNSYMMETRIC DIRECT SPARSE SOLVER RUNNING ON
 	1 HOST x 1 MPI RANK PER HOST x 10 THREADS PER RANK
        NUMBER OF EQUATIONS:  205488
        NUMBER OF RHS:        1
        NUMBER OF FLOPS:      9.515e+10
        SOLVER ELAPSED TIME:  542ms

               CONVERGENCE CHECKS FOR EQUILIBRIUM ITERATION     1

   MAX. PENETRATION ERROR -42.3668E-15  AT NODE CONCRETE-1.38640 OF CONTACT 
   PAIR (GENERAL_CONTACT_FACES_4,GENERAL_CONTACT_FACES_1)
   MAX. CONTACT FORCE ERROR -1.03970E-09 AT NODE CONCRETE-1.38543 OF CONTACT 
   PAIR (GENERAL_CONTACT_FACES_3,GENERAL_CONTACT_FACES_2)
          THE CONTACT CONSTRAINTS HAVE CONVERGED.

 AVERAGE FORCE                       3.69       TIME AVG. FORCE        1.34    
 LARGEST SCALED RESIDUAL FORCE      3.401E-08   AT NODE      66737   DOF  2
   INSTANCE: ANCHOR-1                                                                        
  CORRESPONDING RESIDUAL FORCE      3.401E-08
 LARGEST INCREMENT OF DISP.         8.333E-03   AT NODE          1   DOF  2
   INSTANCE: ANCHOR-1                                                                        
 LARGEST CORRECTION TO DISP.        3.820E-07   AT NODE      10603   DOF  1
   INSTANCE: CONCRETE-1                                                                      
          THE FORCE     EQUILIBRIUM EQUATIONS HAVE CONVERGED

 ITERATION SUMMARY FOR THE INCREMENT:   1 TOTAL ITERATIONS, OF WHICH
   0 ARE SEVERE DISCONTINUITY ITERATIONS AND  1 ARE EQUILIBRIUM ITERATIONS.

 TIME INCREMENT COMPLETED  0.500    ,  FRACTION OF STEP COMPLETED  0.152    
 STEP TIME COMPLETED        9.14    ,  TOTAL TIME COMPLETED         9.14    


  INCREMENT    28 STARTS. ATTEMPT NUMBER  1, TIME INCREMENT  0.500    
 
	UNSYMMETRIC DIRECT SPARSE SOLVER RUNNING ON
 	1 HOST x 1 MPI RANK PER HOST x 10 THREADS PER RANK
        NUMBER OF EQUATIONS:  205488
        NUMBER OF RHS:        1
        NUMBER OF FLOPS:      9.515e+10
        SOLVER ELAPSED TIME:  539ms

               CONVERGENCE CHECKS FOR EQUILIBRIUM ITERATION     1

   MAX. PENETRATION ERROR 65.6274E-15  AT NODE CONCRETE-1.25301 OF CONTACT PAIR 
   (GENERAL_CONTACT_FACES_4,GENERAL_CONTACT_FACES_1)
   MAX. CONTACT FORCE ERROR 981.183E-12   AT NODE CONCRETE-1.38662 OF CONTACT 
   PAIR (GENERAL_CONTACT_FACES_4,GENERAL_CONTACT_FACES_1)
          THE CONTACT CONSTRAINTS HAVE CONVERGED.

 AVERAGE FORCE                       3.90       TIME AVG. FORCE        1.43    
 LARGEST SCALED RESIDUAL FORCE      3.395E-08   AT NODE      66737   DOF  2
   INSTANCE: ANCHOR-1                                                                        
  CORRESPONDING RESIDUAL FORCE      3.395E-08
 LARGEST INCREMENT OF DISP.         8.333E-03   AT NODE          1   DOF  2
   INSTANCE: ANCHOR-1                                                                        
 LARGEST CORRECTION TO DISP.        3.750E-07   AT NODE      10603   DOF  1
   INSTANCE: CONCRETE-1                                                                      
          THE FORCE     EQUILIBRIUM EQUATIONS HAVE CONVERGED

 ITERATION SUMMARY FOR THE INCREMENT:   1 TOTAL ITERATIONS, OF WHICH
   0 ARE SEVERE DISCONTINUITY ITERATIONS AND  1 ARE EQUILIBRIUM ITERATIONS.

 TIME INCREMENT COMPLETED  0.500    ,  FRACTION OF STEP COMPLETED  0.161    
 STEP TIME COMPLETED        9.64    ,  TOTAL TIME COMPLETED         9.64    


  INCREMENT    29 STARTS. ATTEMPT NUMBER  1, TIME INCREMENT  0.500    
 
	UNSYMMETRIC DIRECT SPARSE SOLVER RUNNING ON
 	1 HOST x 1 MPI RANK PER HOST x 10 THREADS PER RANK
        NUMBER OF EQUATIONS:  205488
        NUMBER OF RHS:        1
        NUMBER OF FLOPS:      9.515e+10
        SOLVER ELAPSED TIME:  537ms

               CONVERGENCE CHECKS FOR EQUILIBRIUM ITERATION     1

   MAX. PENETRATION ERROR -65.9819E-15  AT NODE CONCRETE-1.25239 OF CONTACT 
   PAIR (GENERAL_CONTACT_FACES_3,GENERAL_CONTACT_FACES_2)
   MAX. CONTACT FORCE ERROR 1.16907E-09 AT NODE CONCRETE-1.38657 OF CONTACT 
   PAIR (GENERAL_CONTACT_FACES_4,GENERAL_CONTACT_FACES_1)
          THE CONTACT CONSTRAINTS HAVE CONVERGED.

 AVERAGE FORCE                       4.10       TIME AVG. FORCE        1.52    
 LARGEST SCALED RESIDUAL FORCE      3.388E-08   AT NODE      66737   DOF  2
   INSTANCE: ANCHOR-1                                                                        
  CORRESPONDING RESIDUAL FORCE      3.388E-08
 LARGEST INCREMENT OF DISP.         8.333E-03   AT NODE          1   DOF  2
   INSTANCE: ANCHOR-1                                                                        
 LARGEST CORRECTION TO DISP.        3.679E-07   AT NODE      10603   DOF  1
   INSTANCE: CONCRETE-1                                                                      
          THE FORCE     EQUILIBRIUM EQUATIONS HAVE CONVERGED

 ITERATION SUMMARY FOR THE INCREMENT:   1 TOTAL ITERATIONS, OF WHICH
   0 ARE SEVERE DISCONTINUITY ITERATIONS AND  1 ARE EQUILIBRIUM ITERATIONS.

 TIME INCREMENT COMPLETED  0.500    ,  FRACTION OF STEP COMPLETED  0.169    
 STEP TIME COMPLETED        10.1    ,  TOTAL TIME COMPLETED         10.1    


  INCREMENT    30 STARTS. ATTEMPT NUMBER  1, TIME INCREMENT  0.500    
 
	UNSYMMETRIC DIRECT SPARSE SOLVER RUNNING ON
 	1 HOST x 1 MPI RANK PER HOST x 10 THREADS PER RANK
        NUMBER OF EQUATIONS:  205488
        NUMBER OF RHS:        1
        NUMBER OF FLOPS:      9.515e+10
        SOLVER ELAPSED TIME:  529ms

               CONVERGENCE CHECKS FOR EQUILIBRIUM ITERATION     1

   MAX. PENETRATION ERROR 44.4462E-15  AT NODE CONCRETE-1.38522 OF CONTACT PAIR 
   (GENERAL_CONTACT_FACES_3,GENERAL_CONTACT_FACES_2)
   MAX. CONTACT FORCE ERROR 1.17049E-09 AT NODE CONCRETE-1.38543 OF CONTACT 
   PAIR (GENERAL_CONTACT_FACES_3,GENERAL_CONTACT_FACES_2)
          THE CONTACT CONSTRAINTS HAVE CONVERGED.

 AVERAGE FORCE                       4.30       TIME AVG. FORCE        1.61    
 LARGEST SCALED RESIDUAL FORCE      3.382E-08   AT NODE      66737   DOF  2
   INSTANCE: ANCHOR-1                                                                        
  CORRESPONDING RESIDUAL FORCE      3.382E-08
 LARGEST INCREMENT OF DISP.         8.333E-03   AT NODE          1   DOF  2
   INSTANCE: ANCHOR-1                                                                        
 LARGEST CORRECTION TO DISP.        3.613E-07   AT NODE      10603   DOF  1
   INSTANCE: CONCRETE-1                                                                      
          THE FORCE     EQUILIBRIUM EQUATIONS HAVE CONVERGED

 ITERATION SUMMARY FOR THE INCREMENT:   1 TOTAL ITERATIONS, OF WHICH
   0 ARE SEVERE DISCONTINUITY ITERATIONS AND  1 ARE EQUILIBRIUM ITERATIONS.

 TIME INCREMENT COMPLETED  0.500    ,  FRACTION OF STEP COMPLETED  0.177    
 STEP TIME COMPLETED        10.6    ,  TOTAL TIME COMPLETED         10.6    


  INCREMENT    31 STARTS. ATTEMPT NUMBER  1, TIME INCREMENT  0.500    
 
	UNSYMMETRIC DIRECT SPARSE SOLVER RUNNING ON
 	1 HOST x 1 MPI RANK PER HOST x 10 THREADS PER RANK
        NUMBER OF EQUATIONS:  205488
        NUMBER OF RHS:        1
        NUMBER OF FLOPS:      9.515e+10
        SOLVER ELAPSED TIME:  539ms

               CONVERGENCE CHECKS FOR EQUILIBRIUM ITERATION     1

   MAX. PENETRATION ERROR 40.2833E-15  AT NODE CONCRETE-1.38669 OF CONTACT PAIR 
   (GENERAL_CONTACT_FACES_4,GENERAL_CONTACT_FACES_1)
   MAX. CONTACT FORCE ERROR 1.04724E-09 AT NODE CONCRETE-1.38669 OF CONTACT 
   PAIR (GENERAL_CONTACT_FACES_4,GENERAL_CONTACT_FACES_1)
          THE CONTACT CONSTRAINTS HAVE CONVERGED.

 AVERAGE FORCE                       4.50       TIME AVG. FORCE        1.71    
 LARGEST SCALED RESIDUAL FORCE      3.375E-08   AT NODE      66737   DOF  2
   INSTANCE: ANCHOR-1                                                                        
  CORRESPONDING RESIDUAL FORCE      3.375E-08
 LARGEST INCREMENT OF DISP.         8.333E-03   AT NODE          1   DOF  2
   INSTANCE: ANCHOR-1                                                                        
 LARGEST CORRECTION TO DISP.        3.547E-07   AT NODE      10603   DOF  1
   INSTANCE: CONCRETE-1                                                                      
          THE FORCE     EQUILIBRIUM EQUATIONS HAVE CONVERGED

 ITERATION SUMMARY FOR THE INCREMENT:   1 TOTAL ITERATIONS, OF WHICH
   0 ARE SEVERE DISCONTINUITY ITERATIONS AND  1 ARE EQUILIBRIUM ITERATIONS.

 TIME INCREMENT COMPLETED  0.500    ,  FRACTION OF STEP COMPLETED  0.186    
 STEP TIME COMPLETED        11.1    ,  TOTAL TIME COMPLETED         11.1    


  INCREMENT    32 STARTS. ATTEMPT NUMBER  1, TIME INCREMENT  0.500    
 
	UNSYMMETRIC DIRECT SPARSE SOLVER RUNNING ON
 	1 HOST x 1 MPI RANK PER HOST x 10 THREADS PER RANK
        NUMBER OF EQUATIONS:  205488
        NUMBER OF RHS:        1
        NUMBER OF FLOPS:      9.515e+10
        SOLVER ELAPSED TIME:  526ms

               CONVERGENCE CHECKS FOR EQUILIBRIUM ITERATION     1

   MAX. PENETRATION ERROR 43.7331E-15  AT NODE CONCRETE-1.10540 OF CONTACT PAIR 
   (GENERAL_CONTACT_FACES_4,GENERAL_CONTACT_FACES_1)
   MAX. CONTACT FORCE ERROR 960.195E-12   AT NODE CONCRETE-1.38659 OF CONTACT 
   PAIR (GENERAL_CONTACT_FACES_4,GENERAL_CONTACT_FACES_1)
          THE CONTACT CONSTRAINTS HAVE CONVERGED.

 AVERAGE FORCE                       4.71       TIME AVG. FORCE        1.80    
 LARGEST SCALED RESIDUAL FORCE      3.368E-08   AT NODE      66737   DOF  2
   INSTANCE: ANCHOR-1                                                                        
  CORRESPONDING RESIDUAL FORCE      3.368E-08
 LARGEST INCREMENT OF DISP.         8.333E-03   AT NODE          1   DOF  2
   INSTANCE: ANCHOR-1                                                                        
 LARGEST CORRECTION TO DISP.        3.484E-07   AT NODE      10603   DOF  1
   INSTANCE: CONCRETE-1                                                                      
          THE FORCE     EQUILIBRIUM EQUATIONS HAVE CONVERGED

 ITERATION SUMMARY FOR THE INCREMENT:   1 TOTAL ITERATIONS, OF WHICH
   0 ARE SEVERE DISCONTINUITY ITERATIONS AND  1 ARE EQUILIBRIUM ITERATIONS.

 TIME INCREMENT COMPLETED  0.500    ,  FRACTION OF STEP COMPLETED  0.194    
 STEP TIME COMPLETED        11.6    ,  TOTAL TIME COMPLETED         11.6    


  INCREMENT    33 STARTS. ATTEMPT NUMBER  1, TIME INCREMENT  0.500    
 
	UNSYMMETRIC DIRECT SPARSE SOLVER RUNNING ON
 	1 HOST x 1 MPI RANK PER HOST x 10 THREADS PER RANK
        NUMBER OF EQUATIONS:  205488
        NUMBER OF RHS:        1
        NUMBER OF FLOPS:      9.515e+10
        SOLVER ELAPSED TIME:  517ms

               CONVERGENCE CHECKS FOR EQUILIBRIUM ITERATION     1

   MAX. PENETRATION ERROR 53.9897E-15  AT NODE CONCRETE-1.2809 OF CONTACT PAIR 
   (GENERAL_CONTACT_FACES_3,GENERAL_CONTACT_FACES_2)
   MAX. CONTACT FORCE ERROR 773.859E-12   AT NODE CONCRETE-1.38667 OF CONTACT 
   PAIR (GENERAL_CONTACT_FACES_4,GENERAL_CONTACT_FACES_1)
          THE CONTACT CONSTRAINTS HAVE CONVERGED.

 AVERAGE FORCE                       4.91       TIME AVG. FORCE        1.89    
 LARGEST SCALED RESIDUAL FORCE      3.361E-08   AT NODE      66737   DOF  2
   INSTANCE: ANCHOR-1                                                                        
  CORRESPONDING RESIDUAL FORCE      3.361E-08
 LARGEST INCREMENT OF DISP.         8.333E-03   AT NODE          1   DOF  2
   INSTANCE: ANCHOR-1                                                                        
 LARGEST CORRECTION TO DISP.        3.423E-07   AT NODE      10603   DOF  1
   INSTANCE: CONCRETE-1                                                                      
          THE FORCE     EQUILIBRIUM EQUATIONS HAVE CONVERGED

 ITERATION SUMMARY FOR THE INCREMENT:   1 TOTAL ITERATIONS, OF WHICH
   0 ARE SEVERE DISCONTINUITY ITERATIONS AND  1 ARE EQUILIBRIUM ITERATIONS.

 TIME INCREMENT COMPLETED  0.500    ,  FRACTION OF STEP COMPLETED  0.202    
 STEP TIME COMPLETED        12.1    ,  TOTAL TIME COMPLETED         12.1    


  INCREMENT    34 STARTS. ATTEMPT NUMBER  1, TIME INCREMENT  0.500    

                    1 SEVERE DISCONTINUITIES OCCURRED DURING INCREMENT ATTEMPT INITIALIZATION.
                    1 POINTS CHANGED TO SLIPPING WITH NEGATIVE CPRESS
 
	UNSYMMETRIC DIRECT SPARSE SOLVER RUNNING ON
 	1 HOST x 1 MPI RANK PER HOST x 10 THREADS PER RANK
        NUMBER OF EQUATIONS:  205488
        NUMBER OF RHS:        1
        NUMBER OF FLOPS:      9.515e+10
        SOLVER ELAPSED TIME:  542ms

                    1 SEVERE DISCONTINUITIES OCCURRED DURING THIS ITERATION.
                    1 POINTS CHANGED FROM CLOSED TO OPEN

               CONVERGENCE CHECKS FOR SEVERE DISCONTINUITY ITERATION     1

   MAX. PENETRATION ERROR -41.1976E-15  AT NODE CONCRETE-1.25309 OF CONTACT 
   PAIR (GENERAL_CONTACT_FACES_4,GENERAL_CONTACT_FACES_1)
   MAX. CONTACT FORCE ERROR -319.558E-09   AT NODE CONCRETE-1.1646 OF CONTACT 
   PAIR (GENERAL_CONTACT_EDGES_4,GENERAL_CONTACT_FACES_1)
          THE CONTACT CONSTRAINT ERRORS ARE WITHIN THE TOLERANCES.

 AVERAGE FORCE                       5.11       TIME AVG. FORCE        1.99    
 LARGEST SCALED RESIDUAL FORCE     -1.949E-07   AT NODE       1646   DOF  1
   INSTANCE: CONCRETE-1                                                                      
  CORRESPONDING RESIDUAL FORCE     -1.949E-07
 LARGEST INCREMENT OF DISP.         8.333E-03   AT NODE          1   DOF  2
   INSTANCE: ANCHOR-1                                                                        
 LARGEST CORRECTION TO DISP.        3.364E-07   AT NODE      10603   DOF  1
   INSTANCE: CONCRETE-1                                                                      
          THE FORCE     EQUILIBRIUM EQUATIONS HAVE CONVERGED

 ITERATION SUMMARY FOR THE INCREMENT:   1 TOTAL ITERATIONS, OF WHICH
   1 ARE SEVERE DISCONTINUITY ITERATIONS AND  0 ARE EQUILIBRIUM ITERATIONS.

 TIME INCREMENT COMPLETED  0.500    ,  FRACTION OF STEP COMPLETED  0.211    
 STEP TIME COMPLETED        12.6    ,  TOTAL TIME COMPLETED         12.6    


  INCREMENT    35 STARTS. ATTEMPT NUMBER  1, TIME INCREMENT  0.500    

                    1 SEVERE DISCONTINUITIES OCCURRED DURING INCREMENT ATTEMPT INITIALIZATION.
                    1 POINTS CHANGED TO SLIPPING WITH NEGATIVE CPRESS
 
	UNSYMMETRIC DIRECT SPARSE SOLVER RUNNING ON
 	1 HOST x 1 MPI RANK PER HOST x 10 THREADS PER RANK
        NUMBER OF EQUATIONS:  205488
        NUMBER OF RHS:        1
        NUMBER OF FLOPS:      9.515e+10
        SOLVER ELAPSED TIME:  538ms

                    5 SEVERE DISCONTINUITIES OCCURRED DURING THIS ITERATION.
                    4 POINTS CHANGED FROM OPEN TO CLOSED
                    1 POINTS CHANGED FROM CLOSED TO OPEN

               CONVERGENCE CHECKS FOR SEVERE DISCONTINUITY ITERATION     1

   MAX. PENETRATION ERROR 14.5770E-12  AT NODE CONCRETE-1.10503 OF CONTACT PAIR 
   (GENERAL_CONTACT_EDGES_4,GENERAL_CONTACT_FACES_1)
   MAX. CONTACT FORCE ERROR -663.137E-09   AT NODE CONCRETE-1.1639 OF CONTACT 
   PAIR (GENERAL_CONTACT_EDGES_3,GENERAL_CONTACT_FACES_2)
          THE CONTACT CONSTRAINT ERRORS ARE WITHIN THE TOLERANCES.

 AVERAGE FORCE                       5.32       TIME AVG. FORCE        2.08    
 LARGEST SCALED RESIDUAL FORCE      4.037E-07   AT NODE       1639   DOF  1
   INSTANCE: CONCRETE-1                                                                      
  CORRESPONDING RESIDUAL FORCE      4.037E-07
 LARGEST INCREMENT OF DISP.         8.333E-03   AT NODE          1   DOF  2
   INSTANCE: ANCHOR-1                                                                        
 LARGEST CORRECTION TO DISP.        3.306E-07   AT NODE      10603   DOF  1
   INSTANCE: CONCRETE-1                                                                      
          THE FORCE     EQUILIBRIUM EQUATIONS HAVE CONVERGED

 ITERATION SUMMARY FOR THE INCREMENT:   1 TOTAL ITERATIONS, OF WHICH
   1 ARE SEVERE DISCONTINUITY ITERATIONS AND  0 ARE EQUILIBRIUM ITERATIONS.

 TIME INCREMENT COMPLETED  0.500    ,  FRACTION OF STEP COMPLETED  0.219    
 STEP TIME COMPLETED        13.1    ,  TOTAL TIME COMPLETED         13.1    


  INCREMENT    36 STARTS. ATTEMPT NUMBER  1, TIME INCREMENT  0.500    

                    1 SEVERE DISCONTINUITIES OCCURRED DURING INCREMENT ATTEMPT INITIALIZATION.
                    1 POINTS CHANGED TO SLIPPING WITH NEGATIVE CPRESS
 
	UNSYMMETRIC DIRECT SPARSE SOLVER RUNNING ON
 	1 HOST x 1 MPI RANK PER HOST x 10 THREADS PER RANK
        NUMBER OF EQUATIONS:  205488
        NUMBER OF RHS:        1
        NUMBER OF FLOPS:      9.515e+10
        SOLVER ELAPSED TIME:  549ms

                    1 SEVERE DISCONTINUITIES OCCURRED DURING THIS ITERATION.
                    1 POINTS CHANGED FROM CLOSED TO OPEN

               CONVERGENCE CHECKS FOR SEVERE DISCONTINUITY ITERATION     1

   MAX. PENETRATION ERROR 39.8316E-15  AT NODE CONCRETE-1.38644 OF CONTACT PAIR 
   (GENERAL_CONTACT_FACES_4,GENERAL_CONTACT_FACES_1)
   MAX. CONTACT FORCE ERROR -298.005E-09   AT NODE ANCHOR-1.419 OF CONTACT PAIR 
   (GENERAL_CONTACT_EDGES_1,GENERAL_CONTACT_FACES_4)
          THE CONTACT CONSTRAINT ERRORS ARE WITHIN THE TOLERANCES.

 AVERAGE FORCE                       5.52       TIME AVG. FORCE        2.18    
 LARGEST SCALED RESIDUAL FORCE     -1.833E-07   AT NODE       1646   DOF  1
   INSTANCE: CONCRETE-1                                                                      
  CORRESPONDING RESIDUAL FORCE     -1.833E-07
 LARGEST INCREMENT OF DISP.         8.333E-03   AT NODE          1   DOF  2
   INSTANCE: ANCHOR-1                                                                        
 LARGEST CORRECTION TO DISP.        3.251E-07   AT NODE      10603   DOF  1
   INSTANCE: CONCRETE-1                                                                      
          THE FORCE     EQUILIBRIUM EQUATIONS HAVE CONVERGED

[...]
 
	UNSYMMETRIC DIRECT SPARSE SOLVER RUNNING ON
 	1 HOST x 1 MPI RANK PER HOST x 10 THREADS PER RANK
        NUMBER OF EQUATIONS:  205488
        NUMBER OF RHS:        1
        NUMBER OF FLOPS:      9.521e+10
        SOLVER ELAPSED TIME:  548ms

               CONVERGENCE CHECKS FOR EQUILIBRIUM ITERATION     1

   MAX. PENETRATION ERROR -295.087E-15   AT NODE ANCHOR-1.26 OF CONTACT PAIR 
   (GENERAL_CONTACT_EDGES_2,GENERAL_CONTACT_FACES_3)
   MAX. CONTACT FORCE ERROR -3.85679E-09 AT NODE ANCHOR-1.26 OF CONTACT PAIR 
   (GENERAL_CONTACT_EDGES_2,GENERAL_CONTACT_FACES_3)
          THE CONTACT CONSTRAINTS HAVE CONVERGED.

 AVERAGE FORCE                       22.3       TIME AVG. FORCE        10.5    
 LARGEST SCALED RESIDUAL FORCE     -3.851E-07   AT NODE       1639   DOF  2
   INSTANCE: CONCRETE-1                                                                      
  CORRESPONDING RESIDUAL FORCE     -3.851E-07
 LARGEST INCREMENT OF DISP.         8.333E-03   AT NODE          1   DOF  2
   INSTANCE: ANCHOR-1                                                                        
 LARGEST CORRECTION TO DISP.        1.993E-07   AT NODE       1647   DOF  1
   INSTANCE: CONCRETE-1                                                                      
          THE FORCE     EQUILIBRIUM EQUATIONS HAVE CONVERGED

 ITERATION SUMMARY FOR THE INCREMENT:   1 TOTAL ITERATIONS, OF WHICH
   0 ARE SEVERE DISCONTINUITY ITERATIONS AND  1 ARE EQUILIBRIUM ITERATIONS.

 TIME INCREMENT COMPLETED  0.500    ,  FRACTION OF STEP COMPLETED  0.919    
 STEP TIME COMPLETED        55.1    ,  TOTAL TIME COMPLETED         55.1    


  INCREMENT   120 STARTS. ATTEMPT NUMBER  1, TIME INCREMENT  0.500    
 
	UNSYMMETRIC DIRECT SPARSE SOLVER RUNNING ON
 	1 HOST x 1 MPI RANK PER HOST x 10 THREADS PER RANK
        NUMBER OF EQUATIONS:  205488
        NUMBER OF RHS:        1
        NUMBER OF FLOPS:      9.521e+10
        SOLVER ELAPSED TIME:  591ms

               CONVERGENCE CHECKS FOR EQUILIBRIUM ITERATION     1

   MAX. PENETRATION ERROR -299.099E-15   AT NODE ANCHOR-1.26 OF CONTACT PAIR 
   (GENERAL_CONTACT_EDGES_2,GENERAL_CONTACT_FACES_3)
   MAX. CONTACT FORCE ERROR -3.90925E-09 AT NODE ANCHOR-1.26 OF CONTACT PAIR 
   (GENERAL_CONTACT_EDGES_2,GENERAL_CONTACT_FACES_3)
          THE CONTACT CONSTRAINTS HAVE CONVERGED.

 AVERAGE FORCE                       22.5       TIME AVG. FORCE        10.6    
 LARGEST SCALED RESIDUAL FORCE     -3.906E-07   AT NODE       1639   DOF  2
   INSTANCE: CONCRETE-1                                                                      
  CORRESPONDING RESIDUAL FORCE     -3.906E-07
 LARGEST INCREMENT OF DISP.         8.333E-03   AT NODE          1   DOF  2
   INSTANCE: ANCHOR-1                                                                        
 LARGEST CORRECTION TO DISP.        1.982E-07   AT NODE       1647   DOF  1
   INSTANCE: CONCRETE-1                                                                      
          THE FORCE     EQUILIBRIUM EQUATIONS HAVE CONVERGED

 ITERATION SUMMARY FOR THE INCREMENT:   1 TOTAL ITERATIONS, OF WHICH
   0 ARE SEVERE DISCONTINUITY ITERATIONS AND  1 ARE EQUILIBRIUM ITERATIONS.

 TIME INCREMENT COMPLETED  0.500    ,  FRACTION OF STEP COMPLETED  0.927    
 STEP TIME COMPLETED        55.6    ,  TOTAL TIME COMPLETED         55.6    


  INCREMENT   121 STARTS. ATTEMPT NUMBER  1, TIME INCREMENT  0.500    
 
	UNSYMMETRIC DIRECT SPARSE SOLVER RUNNING ON
 	1 HOST x 1 MPI RANK PER HOST x 10 THREADS PER RANK
        NUMBER OF EQUATIONS:  205488
        NUMBER OF RHS:        1
        NUMBER OF FLOPS:      9.521e+10
        SOLVER ELAPSED TIME:  535ms

               CONVERGENCE CHECKS FOR EQUILIBRIUM ITERATION     1

   MAX. PENETRATION ERROR -303.242E-15   AT NODE ANCHOR-1.26 OF CONTACT PAIR 
   (GENERAL_CONTACT_EDGES_2,GENERAL_CONTACT_FACES_3)
   MAX. CONTACT FORCE ERROR -3.96342E-09 AT NODE ANCHOR-1.26 OF CONTACT PAIR 
   (GENERAL_CONTACT_EDGES_2,GENERAL_CONTACT_FACES_3)
          THE CONTACT CONSTRAINTS HAVE CONVERGED.

 AVERAGE FORCE                       22.7       TIME AVG. FORCE        10.7    
 LARGEST SCALED RESIDUAL FORCE     -3.962E-07   AT NODE       1639   DOF  2
   INSTANCE: CONCRETE-1                                                                      
  CORRESPONDING RESIDUAL FORCE     -3.962E-07
 LARGEST INCREMENT OF DISP.         8.333E-03   AT NODE          1   DOF  2
   INSTANCE: ANCHOR-1                                                                        
 LARGEST CORRECTION TO DISP.        1.970E-07   AT NODE       1647   DOF  1
   INSTANCE: CONCRETE-1                                                                      
          THE FORCE     EQUILIBRIUM EQUATIONS HAVE CONVERGED

 ITERATION SUMMARY FOR THE INCREMENT:   1 TOTAL ITERATIONS, OF WHICH
   0 ARE SEVERE DISCONTINUITY ITERATIONS AND  1 ARE EQUILIBRIUM ITERATIONS.

 TIME INCREMENT COMPLETED  0.500    ,  FRACTION OF STEP COMPLETED  0.936    
 STEP TIME COMPLETED        56.1    ,  TOTAL TIME COMPLETED         56.1    


  INCREMENT   122 STARTS. ATTEMPT NUMBER  1, TIME INCREMENT  0.500    
 
	UNSYMMETRIC DIRECT SPARSE SOLVER RUNNING ON
 	1 HOST x 1 MPI RANK PER HOST x 10 THREADS PER RANK
        NUMBER OF EQUATIONS:  205488
        NUMBER OF RHS:        1
        NUMBER OF FLOPS:      9.521e+10
        SOLVER ELAPSED TIME:  526ms

                    2 SEVERE DISCONTINUITIES OCCURRED DURING THIS ITERATION.
                    2 POINTS CHANGED FROM OPEN TO CLOSED

               CONVERGENCE CHECKS FOR SEVERE DISCONTINUITY ITERATION     1

   MAX. PENETRATION ERROR 18.7638E-12  AT NODE ANCHOR-1.420 OF CONTACT PAIR 
   (GENERAL_CONTACT_EDGES_1,GENERAL_CONTACT_FACES_4)
   MAX. CONTACT FORCE ERROR 530.658E-09   AT NODE ANCHOR-1.420 OF CONTACT PAIR 
   (GENERAL_CONTACT_EDGES_1,GENERAL_CONTACT_FACES_4)
          THE CONTACT CONSTRAINT ERRORS ARE WITHIN THE TOLERANCES.

 AVERAGE FORCE                       23.0       TIME AVG. FORCE        10.8    
 LARGEST SCALED RESIDUAL FORCE     -4.017E-07   AT NODE       1639   DOF  2
   INSTANCE: CONCRETE-1                                                                      
  CORRESPONDING RESIDUAL FORCE     -4.017E-07
 LARGEST INCREMENT OF DISP.         8.333E-03   AT NODE          1   DOF  2
   INSTANCE: ANCHOR-1                                                                        
 LARGEST CORRECTION TO DISP.        1.958E-07   AT NODE       1647   DOF  1
   INSTANCE: CONCRETE-1                                                                      
          THE FORCE     EQUILIBRIUM EQUATIONS HAVE CONVERGED

 ITERATION SUMMARY FOR THE INCREMENT:   1 TOTAL ITERATIONS, OF WHICH
   1 ARE SEVERE DISCONTINUITY ITERATIONS AND  0 ARE EQUILIBRIUM ITERATIONS.

 TIME INCREMENT COMPLETED  0.500    ,  FRACTION OF STEP COMPLETED  0.944    
 STEP TIME COMPLETED        56.6    ,  TOTAL TIME COMPLETED         56.6    


  INCREMENT   123 STARTS. ATTEMPT NUMBER  1, TIME INCREMENT  0.500    
 
	UNSYMMETRIC DIRECT SPARSE SOLVER RUNNING ON
 	1 HOST x 1 MPI RANK PER HOST x 10 THREADS PER RANK
        NUMBER OF EQUATIONS:  205488
        NUMBER OF RHS:        1
        NUMBER OF FLOPS:      9.521e+10
        SOLVER ELAPSED TIME:  553ms

               CONVERGENCE CHECKS FOR EQUILIBRIUM ITERATION     1

   MAX. PENETRATION ERROR -311.175E-15   AT NODE ANCHOR-1.26 OF CONTACT PAIR 
   (GENERAL_CONTACT_EDGES_2,GENERAL_CONTACT_FACES_3)
   MAX. CONTACT FORCE ERROR -4.06716E-09 AT NODE ANCHOR-1.26 OF CONTACT PAIR 
   (GENERAL_CONTACT_EDGES_2,GENERAL_CONTACT_FACES_3)
          THE CONTACT CONSTRAINTS HAVE CONVERGED.

 AVERAGE FORCE                       23.2       TIME AVG. FORCE        10.9    
 LARGEST SCALED RESIDUAL FORCE     -4.072E-07   AT NODE       1639   DOF  2
   INSTANCE: CONCRETE-1                                                                      
  CORRESPONDING RESIDUAL FORCE     -4.072E-07
 LARGEST INCREMENT OF DISP.         8.333E-03   AT NODE          1   DOF  2
   INSTANCE: ANCHOR-1                                                                        
 LARGEST CORRECTION TO DISP.        1.946E-07   AT NODE       1647   DOF  1
   INSTANCE: CONCRETE-1                                                                      
          THE FORCE     EQUILIBRIUM EQUATIONS HAVE CONVERGED

 ITERATION SUMMARY FOR THE INCREMENT:   1 TOTAL ITERATIONS, OF WHICH
   0 ARE SEVERE DISCONTINUITY ITERATIONS AND  1 ARE EQUILIBRIUM ITERATIONS.

 TIME INCREMENT COMPLETED  0.500    ,  FRACTION OF STEP COMPLETED  0.952    
 STEP TIME COMPLETED        57.1    ,  TOTAL TIME COMPLETED         57.1    


  INCREMENT   124 STARTS. ATTEMPT NUMBER  1, TIME INCREMENT  0.500    
 
	UNSYMMETRIC DIRECT SPARSE SOLVER RUNNING ON
 	1 HOST x 1 MPI RANK PER HOST x 10 THREADS PER RANK
        NUMBER OF EQUATIONS:  205488
        NUMBER OF RHS:        1
        NUMBER OF FLOPS:      9.521e+10
        SOLVER ELAPSED TIME:  536ms

               CONVERGENCE CHECKS FOR EQUILIBRIUM ITERATION     1

   MAX. PENETRATION ERROR -315.141E-15   AT NODE ANCHOR-1.26 OF CONTACT PAIR 
   (GENERAL_CONTACT_EDGES_2,GENERAL_CONTACT_FACES_3)
   MAX. CONTACT FORCE ERROR -4.11902E-09 AT NODE ANCHOR-1.26 OF CONTACT PAIR 
   (GENERAL_CONTACT_EDGES_2,GENERAL_CONTACT_FACES_3)
          THE CONTACT CONSTRAINTS HAVE CONVERGED.

 AVERAGE FORCE                       23.4       TIME AVG. FORCE        11.0    
 LARGEST SCALED RESIDUAL FORCE     -4.128E-07   AT NODE       1639   DOF  2
   INSTANCE: CONCRETE-1                                                                      
  CORRESPONDING RESIDUAL FORCE     -4.128E-07
 LARGEST INCREMENT OF DISP.         8.333E-03   AT NODE          1   DOF  2
   INSTANCE: ANCHOR-1                                                                        
 LARGEST CORRECTION TO DISP.        1.934E-07   AT NODE       1647   DOF  1
   INSTANCE: CONCRETE-1                                                                      
          THE FORCE     EQUILIBRIUM EQUATIONS HAVE CONVERGED

 ITERATION SUMMARY FOR THE INCREMENT:   1 TOTAL ITERATIONS, OF WHICH
   0 ARE SEVERE DISCONTINUITY ITERATIONS AND  1 ARE EQUILIBRIUM ITERATIONS.

 TIME INCREMENT COMPLETED  0.500    ,  FRACTION OF STEP COMPLETED  0.961    
 STEP TIME COMPLETED        57.6    ,  TOTAL TIME COMPLETED         57.6    


  INCREMENT   125 STARTS. ATTEMPT NUMBER  1, TIME INCREMENT  0.500    
 
	UNSYMMETRIC DIRECT SPARSE SOLVER RUNNING ON
 	1 HOST x 1 MPI RANK PER HOST x 10 THREADS PER RANK
        NUMBER OF EQUATIONS:  205488
        NUMBER OF RHS:        1
        NUMBER OF FLOPS:      9.521e+10
        SOLVER ELAPSED TIME:  521ms

               CONVERGENCE CHECKS FOR EQUILIBRIUM ITERATION     1

   MAX. PENETRATION ERROR -319.028E-15   AT NODE ANCHOR-1.26 OF CONTACT PAIR 
   (GENERAL_CONTACT_EDGES_2,GENERAL_CONTACT_FACES_3)
   MAX. CONTACT FORCE ERROR -4.16985E-09 AT NODE ANCHOR-1.26 OF CONTACT PAIR 
   (GENERAL_CONTACT_EDGES_2,GENERAL_CONTACT_FACES_3)
          THE CONTACT CONSTRAINTS HAVE CONVERGED.

 AVERAGE FORCE                       23.6       TIME AVG. FORCE        11.1    
 LARGEST SCALED RESIDUAL FORCE     -4.184E-07   AT NODE       1639   DOF  2
   INSTANCE: CONCRETE-1                                                                      
  CORRESPONDING RESIDUAL FORCE     -4.184E-07
 LARGEST INCREMENT OF DISP.         8.333E-03   AT NODE          1   DOF  2
   INSTANCE: ANCHOR-1                                                                        
 LARGEST CORRECTION TO DISP.        1.923E-07   AT NODE       1647   DOF  1
   INSTANCE: CONCRETE-1                                                                      
          THE FORCE     EQUILIBRIUM EQUATIONS HAVE CONVERGED

 ITERATION SUMMARY FOR THE INCREMENT:   1 TOTAL ITERATIONS, OF WHICH
   0 ARE SEVERE DISCONTINUITY ITERATIONS AND  1 ARE EQUILIBRIUM ITERATIONS.

 TIME INCREMENT COMPLETED  0.500    ,  FRACTION OF STEP COMPLETED  0.969    
 STEP TIME COMPLETED        58.1    ,  TOTAL TIME COMPLETED         58.1    


  INCREMENT   126 STARTS. ATTEMPT NUMBER  1, TIME INCREMENT  0.500    
 
	UNSYMMETRIC DIRECT SPARSE SOLVER RUNNING ON
 	1 HOST x 1 MPI RANK PER HOST x 10 THREADS PER RANK
        NUMBER OF EQUATIONS:  205488
        NUMBER OF RHS:        1
        NUMBER OF FLOPS:      9.521e+10
        SOLVER ELAPSED TIME:  539ms

               CONVERGENCE CHECKS FOR EQUILIBRIUM ITERATION     1

   MAX. PENETRATION ERROR -323.180E-15   AT NODE ANCHOR-1.80 OF CONTACT PAIR 
   (GENERAL_CONTACT_EDGES_1,GENERAL_CONTACT_FACES_4)
   MAX. CONTACT FORCE ERROR -4.22418E-09 AT NODE ANCHOR-1.80 OF CONTACT PAIR 
   (GENERAL_CONTACT_EDGES_1,GENERAL_CONTACT_FACES_4)
          THE CONTACT CONSTRAINTS HAVE CONVERGED.

 AVERAGE FORCE                       23.8       TIME AVG. FORCE        11.2    
 LARGEST SCALED RESIDUAL FORCE     -4.240E-07   AT NODE       1639   DOF  2
   INSTANCE: CONCRETE-1                                                                      
  CORRESPONDING RESIDUAL FORCE     -4.240E-07
 LARGEST INCREMENT OF DISP.         8.333E-03   AT NODE          1   DOF  2
   INSTANCE: ANCHOR-1                                                                        
 LARGEST CORRECTION TO DISP.        1.911E-07   AT NODE       1647   DOF  1
   INSTANCE: CONCRETE-1                                                                      
          THE FORCE     EQUILIBRIUM EQUATIONS HAVE CONVERGED

 ITERATION SUMMARY FOR THE INCREMENT:   1 TOTAL ITERATIONS, OF WHICH
   0 ARE SEVERE DISCONTINUITY ITERATIONS AND  1 ARE EQUILIBRIUM ITERATIONS.

 TIME INCREMENT COMPLETED  0.500    ,  FRACTION OF STEP COMPLETED  0.977    
 STEP TIME COMPLETED        58.6    ,  TOTAL TIME COMPLETED         58.6    


  INCREMENT   127 STARTS. ATTEMPT NUMBER  1, TIME INCREMENT  0.500    
 
	UNSYMMETRIC DIRECT SPARSE SOLVER RUNNING ON
 	1 HOST x 1 MPI RANK PER HOST x 10 THREADS PER RANK
        NUMBER OF EQUATIONS:  205488
        NUMBER OF RHS:        1
        NUMBER OF FLOPS:      9.521e+10
        SOLVER ELAPSED TIME:  542ms

               CONVERGENCE CHECKS FOR EQUILIBRIUM ITERATION     1

   MAX. PENETRATION ERROR -327.100E-15   AT NODE ANCHOR-1.26 OF CONTACT PAIR 
   (GENERAL_CONTACT_EDGES_2,GENERAL_CONTACT_FACES_3)
   MAX. CONTACT FORCE ERROR -4.27540E-09 AT NODE ANCHOR-1.26 OF CONTACT PAIR 
   (GENERAL_CONTACT_EDGES_2,GENERAL_CONTACT_FACES_3)
          THE CONTACT CONSTRAINTS HAVE CONVERGED.

 AVERAGE FORCE                       24.0       TIME AVG. FORCE        11.3    
 LARGEST SCALED RESIDUAL FORCE     -4.296E-07   AT NODE       1639   DOF  2
   INSTANCE: CONCRETE-1                                                                      
  CORRESPONDING RESIDUAL FORCE     -4.296E-07
 LARGEST INCREMENT OF DISP.         8.333E-03   AT NODE          1   DOF  2
   INSTANCE: ANCHOR-1                                                                        
 LARGEST CORRECTION TO DISP.        1.900E-07   AT NODE       1647   DOF  1
   INSTANCE: CONCRETE-1                                                                      
          THE FORCE     EQUILIBRIUM EQUATIONS HAVE CONVERGED

 ITERATION SUMMARY FOR THE INCREMENT:   1 TOTAL ITERATIONS, OF WHICH
   0 ARE SEVERE DISCONTINUITY ITERATIONS AND  1 ARE EQUILIBRIUM ITERATIONS.

 TIME INCREMENT COMPLETED  0.500    ,  FRACTION OF STEP COMPLETED  0.986    
 STEP TIME COMPLETED        59.1    ,  TOTAL TIME COMPLETED         59.1    


  INCREMENT   128 STARTS. ATTEMPT NUMBER  1, TIME INCREMENT  0.500    
 
	UNSYMMETRIC DIRECT SPARSE SOLVER RUNNING ON
 	1 HOST x 1 MPI RANK PER HOST x 10 THREADS PER RANK
        NUMBER OF EQUATIONS:  205488
        NUMBER OF RHS:        1
        NUMBER OF FLOPS:      9.521e+10
        SOLVER ELAPSED TIME:  531ms

               CONVERGENCE CHECKS FOR EQUILIBRIUM ITERATION     1

   MAX. PENETRATION ERROR -331.184E-15   AT NODE ANCHOR-1.80 OF CONTACT PAIR 
   (GENERAL_CONTACT_EDGES_1,GENERAL_CONTACT_FACES_4)
   MAX. CONTACT FORCE ERROR -4.32885E-09 AT NODE ANCHOR-1.80 OF CONTACT PAIR 
   (GENERAL_CONTACT_EDGES_1,GENERAL_CONTACT_FACES_4)
          THE CONTACT CONSTRAINTS HAVE CONVERGED.

 AVERAGE FORCE                       24.2       TIME AVG. FORCE        11.4    
 LARGEST SCALED RESIDUAL FORCE     -4.353E-07   AT NODE       1639   DOF  2
   INSTANCE: CONCRETE-1                                                                      
  CORRESPONDING RESIDUAL FORCE     -4.353E-07
 LARGEST INCREMENT OF DISP.         8.333E-03   AT NODE          1   DOF  2
   INSTANCE: ANCHOR-1                                                                        
 LARGEST CORRECTION TO DISP.        1.889E-07   AT NODE       1647   DOF  1
   INSTANCE: CONCRETE-1                                                                      
          THE FORCE     EQUILIBRIUM EQUATIONS HAVE CONVERGED

 ITERATION SUMMARY FOR THE INCREMENT:   1 TOTAL ITERATIONS, OF WHICH
   0 ARE SEVERE DISCONTINUITY ITERATIONS AND  1 ARE EQUILIBRIUM ITERATIONS.

 TIME INCREMENT COMPLETED  0.500    ,  FRACTION OF STEP COMPLETED  0.994    
 STEP TIME COMPLETED        59.6    ,  TOTAL TIME COMPLETED         59.6    


  INCREMENT   129 STARTS. ATTEMPT NUMBER  1, TIME INCREMENT  0.357    
 
	UNSYMMETRIC DIRECT SPARSE SOLVER RUNNING ON
 	1 HOST x 1 MPI RANK PER HOST x 10 THREADS PER RANK
        NUMBER OF EQUATIONS:  205488
        NUMBER OF RHS:        1
        NUMBER OF FLOPS:      9.521e+10
        SOLVER ELAPSED TIME:  544ms

               CONVERGENCE CHECKS FOR EQUILIBRIUM ITERATION     1

   MAX. PENETRATION ERROR -6.52974E-12 AT NODE ANCHOR-1.419 OF CONTACT PAIR 
   (GENERAL_CONTACT_EDGES_1,GENERAL_CONTACT_FACES_4)
   MAX. CONTACT FORCE ERROR -85.3498E-09  AT NODE ANCHOR-1.419 OF CONTACT PAIR 
   (GENERAL_CONTACT_EDGES_1,GENERAL_CONTACT_FACES_4)
          THE CONTACT CONSTRAINTS HAVE CONVERGED.

 AVERAGE FORCE                       24.3       TIME AVG. FORCE        11.5    
 LARGEST SCALED RESIDUAL FORCE     -9.293E-06   AT NODE      66749   DOF  1
   INSTANCE: ANCHOR-1                                                                        
  CORRESPONDING RESIDUAL FORCE     -9.293E-06
 LARGEST INCREMENT OF DISP.         5.945E-03   AT NODE          1   DOF  2
   INSTANCE: ANCHOR-1                                                                        
 LARGEST CORRECTION TO DISP.       -2.435E-06   AT NODE       1646   DOF  2
   INSTANCE: CONCRETE-1                                                                      
          THE FORCE     EQUILIBRIUM EQUATIONS HAVE CONVERGED

 ITERATION SUMMARY FOR THE INCREMENT:   1 TOTAL ITERATIONS, OF WHICH
   0 ARE SEVERE DISCONTINUITY ITERATIONS AND  1 ARE EQUILIBRIUM ITERATIONS.

 TIME INCREMENT COMPLETED  0.357    ,  FRACTION OF STEP COMPLETED   1.00    
 STEP TIME COMPLETED        60.0    ,  TOTAL TIME COMPLETED         60.0    


          THE ANALYSIS HAS BEEN COMPLETED



     ANALYSIS SUMMARY:
     TOTAL OF        129  INCREMENTS
                       0  CUTBACKS IN AUTOMATIC INCREMENTATION
                     137  ITERATIONS INCLUDING CONTACT ITERATIONS IF PRESENT
                     137  PASSES THROUGH THE EQUATION SOLVER OF WHICH 
                     137  INVOLVE MATRIX DECOMPOSITION, INCLUDING
                       0  DECOMPOSITION(S) OF THE MASS MATRIX
                       1  REORDERING OF EQUATIONS TO MINIMIZE WAVEFRONT
                       0  ADDITIONAL RESIDUAL EVALUATIONS FOR LINE SEARCHES
                       0  ADDITIONAL OPERATOR EVALUATIONS FOR LINE SEARCHES
                       2  WARNING MESSAGES DURING USER INPUT PROCESSING
                       0  WARNING MESSAGES DURING ANALYSIS
                       0  ANALYSIS WARNINGS ARE NUMERICAL PROBLEM MESSAGES
                       0  ANALYSIS WARNINGS ARE NEGATIVE EIGENVALUE MESSAGES
                       0  ERROR MESSAGES



     JOB TIME SUMMARY
       USER TIME (SEC)      =     1.01E+03
       SYSTEM TIME (SEC)    =      68.    
       TOTAL CPU TIME (SEC) =     1.08E+03
       WALLCLOCK TIME (SEC) =          175
       MEMORY PEAK (GB)     =            5
