1

   Abaqus 2024                                  Date 31-Mar-2026   Time 10:24:53
   For use by UNIVERSITAET INNSBRUCK under license from Dassault Systemes or its subsidiary.

                                                                                 
                                                                                 
 STEP    1     INCREMENT     1     STEP TIME    0.00    


                        S T E P       1     D Y N A M I C   A N A L Y S I S - I M P L I C I T  I N T E G R A T I O N


                                                                                          

          DYNAMIC APPLICATION PACKED SCHEME IS                 MODERATE DISSIPATION
          HILBER-HUGHES-TAYLOR (HHT) TIME INTEGRATOR IS USED

     AUTOMATIC TIME CONTROL WITH -
          A SUGGESTED INITIAL TIME INCREMENT OF                1.000E-02
          AND A TOTAL TIME PERIOD OF                            60.0    
          THE MINIMUM TIME INCREMENT ALLOWED IS                1.000E-09
          THE MAXIMUM TIME INCREMENT ALLOWED IS                0.500    

          THE HALF-INCREMENT RESIDUALS WILL NOT BE CALCULATED

          INITIAL ACCELERATIONS WILL NOT BE CALCULATED

          HILBER-HUGHES-TAYLOR METHOD PARAMETERS:  ALPHA   IS  -0.414214    
                                                   BETA    IS   0.500000    
                                                   GAMMA   IS   0.914214    
          CONTACT IMPACT/RELEASE COMPUTATIONS ARE SKIPPED
          AGGRESSIVE   TIME INCREMENTATION IS USED
          STEP AMPLITUDE IS                                    STEP

 CONVERGENCE TOLERANCE PARAMETERS FOR FORCE    
     CRITERION FOR RESIDUAL FORCE     FOR A NONLINEAR PROBLEM          5.000E-03
     CRITERION FOR DISP.    CORRECTION IN A NONLINEAR PROBLEM          1.000E-02
     INITIAL VALUE OF TIME AVERAGE FORCE                               1.000E-02
     AVERAGE FORCE     IS TIME AVERAGE FORCE    
     ALTERNATE CRIT. FOR RESIDUAL FORCE     FOR A NONLINEAR PROBLEM    2.000E-02
     CRITERION FOR ZERO FORCE     RELATIVE TO TIME AVRG. FORCE         1.000E-05
     CRITERION FOR RESIDUAL FORCE     WHEN THERE IS ZERO FLUX          1.000E-05
     CRITERION FOR DISP.    CORRECTION WHEN THERE IS ZERO FLUX         1.000E-03
     CRITERION FOR RESIDUAL FORCE     FOR A LINEAR INCREMENT           1.000E-08
     FIELD CONVERSION RATIO                                             1.00    
     CRITERION FOR ZERO FORCE     REL. TO TIME AVRG. MAX. FORCE        1.000E-05
     CRITERION FOR ZERO DISP.    RELATIVE TO CHARACTERISTIC LENGTH     1.000E-08

     VOLUMETRIC STRAIN COMPATIBILITY TOLERANCE FOR HYBRID SOLIDS       1.000E-05
     AXIAL STRAIN COMPATIBILITY TOLERANCE FOR HYBRID BEAMS             1.000E-05
     TRANS. SHEAR STRAIN COMPATIBILITY TOLERANCE FOR HYBRID BEAMS      1.000E-05
     SOFT CONTACT CONSTRAINT COMPATIBILITY TOLERANCE FOR P>P0          5.000E-03
     SOFT CONTACT CONSTRAINT COMPATIBILITY TOLERANCE FOR P=0.0         0.100    
     CONTACT FORCE ERROR TOLERANCE FOR CONVERT SDI=YES                 1.00    
     DISPLACEMENT COMPATIBILITY TOLERANCE FOR DCOUP ELEMENTS           1.000E-05
     ROTATION COMPATIBILITY TOLERANCE FOR DCOUP ELEMENTS               1.000E-05

 EQUILIBRIUM WILL BE CHECKED FOR SEVERE DISCONTINUITY ITERATIONS

 TIME INCREMENTATION CONTROL PARAMETERS:
     FIRST EQUILIBRIUM ITERATION FOR CONSECUTIVE DIVERGENCE CHECK              4
     EQUILIBRIUM ITERATION AT WHICH LOG. CONVERGENCE RATE CHECK BEGINS         8
     EQUILIBRIUM ITERATION AFTER WHICH ALTERNATE RESIDUAL IS USED              9
 *** MAXIMUM EQUILIBRIUM ITERATIONS ALLOWED                                   50
     EQUILIBRIUM ITERATION COUNT FOR CUT-BACK IN NEXT INCREMENT               10
     MAXIMUM EQUILIB. ITERS IN TWO INCREMENTS FOR TIME INCREMENT INCREASE      4
     MAXIMUM ITERATIONS FOR SEVERE DISCONTINUITIES                            50
 *** MAXIMUM ATTEMPTS ALLOWED IN AN INCREMENT                                 12
     MAXIMUM DISCON. ITERS IN TWO INCREMENTS FOR TIME INCREMENT INCREASE      50
     MAXIMUM CONTACT AUGMENTATIONS FOR *SURFACE BEHAVIOR,AUGMENTED LAGRANGE   50
     CUT-BACK FACTOR AFTER DIVERGENCE                                 0.2500    
     CUT-BACK FACTOR FOR TOO SLOW CONVERGENCE                         0.5000    
     CUT-BACK FACTOR AFTER TOO MANY EQUILIBRIUM ITERATIONS            0.7500    
     CUT-BACK FACTOR AFTER TOO MANY SEVERE DISCONTINUITY ITERATIONS   0.2500    
     CUT-BACK FACTOR AFTER PROBLEMS IN ELEMENT ASSEMBLY               0.2500    
     INCREASE FACTOR AFTER TWO INCREMENTS THAT CONVERGE QUICKLY        1.500    
     MAX. TIME INCREMENT INCREASE FACTOR ALLOWED                       1.500    
     MAX. TIME INCREMENT INCREASE FACTOR ALLOWED (DYNAMICS)            1.250    
     MAX. TIME INCREMENT INCREASE FACTOR ALLOWED (DIFFUSION)           2.000    
     MINIMUM TIME INCREMENT RATIO FOR EXTRAPOLATION TO OCCUR          0.1000    
     MAX. RATIO OF TIME INCREMENT TO STABILITY LIMIT                   1.000    
     FRACTION OF STABILITY LIMIT FOR NEW TIME INCREMENT               0.9500    
     TIME INCREMENT INCREASE FACTOR BEFORE A TIME POINT                1.000    

 *** INDICATES USE OF NON-DEFAULT TIME INCREMENTATION CONTROL PARAMETER
     SELECTED WITH *CONTROLS

 CONTACT CONTROLS APPLIED TO ALL CONTACT PAIRS:
     GLOBAL STABILIZATION CONTROL IS NOT USED
     RELATIVE PENETRATION TOLERANCE FOR AUGMENTED LAGRANGE CONTACT:
          FINITE-SLIDING SURFACE-TO-SURFACE                            5.000E-02
          OTHERWISE                                                    1.000E-03

          PRINT OF INCREMENT NUMBER, TIME, ETC., EVERY    1  INCREMENTS

     THE MAXIMUM NUMBER OF INCREMENTS IN THIS STEP IS                  100000

          UNSYMMETRIC MATRIX STORAGE AND SOLUTION WILL BE USED

     LINEAR EXTRAPOLATION WILL BE USED

     CHARACTERISTIC ELEMENT LENGTH      4.01    

     DETAILS REGARDING ACTUAL SOLUTION WAVEFRONT REQUESTED

     DETAILED OUTPUT OF DIAGNOSTICS TO DATABASE REQUESTED

     PRINT OF INCREMENT NUMBER, TIME, ETC., TO THE MESSAGE FILE EVERY     1  INCREMENTS

     ELEMENT OPERATIONS WILL BE CARRIED OUT IN PARALLEL USING  10 THREADS ON 1 DOMAIN

     PARALLEL CONTACT TRACKING ENABLED


     COLLECTING MODEL CONSTRAINT INFORMATION FOR OVERCONSTRAINT CHECKS

     COLLECTING STEP CONSTRAINT INFORMATION FOR OVERCONSTRAINT CHECKS


  INCREMENT     1 STARTS. ATTEMPT NUMBER  1, TIME INCREMENT  1.000E-02
 
     INITIAL ELEMENT LOAD BALANCE
            DOMAIN    1     THREAD    NUMBER OF ELEMENTS
                              1            700
                              2            1048
                              3            1128
                              4            980
                              5            744
                              6            1128
                              7            712
                              8            1080
                              9            1160
                             10            1136
 
	UNSYMMETRIC DIRECT SPARSE SOLVER RUNNING ON
 	1 HOST x 1 MPI RANK PER HOST x 10 THREADS PER RANK
        NUMBER OF EQUATIONS:  59208
        NUMBER OF RHS:        1
        NUMBER OF FLOPS:      6.092e+09
        SOLVER ELAPSED TIME:  163ms

                  214 SEVERE DISCONTINUITIES OCCURRED DURING THIS ITERATION.
                  214 POINTS CHANGED FROM CLOSED TO OPEN

               CONVERGENCE CHECKS FOR SEVERE DISCONTINUITY ITERATION     1

   MAX. PENETRATION ERROR -18.0355E-15  AT NODE CONCRETE-1.7694 OF CONTACT PAIR 
   (GENERAL_CONTACT_FACES_3,GENERAL_CONTACT_FACES_1)
   MAX. CONTACT FORCE ERROR -56.1305E-03  AT NODE CONCRETE-1.10399 OF CONTACT 
   PAIR (GENERAL_CONTACT_FACES_3,GENERAL_CONTACT_FACES_1)
          THE ESTIMATED CONTACT FORCE ERROR IS OUTSIDE OF CONVERGENCE TOLERANCES.

 AVERAGE FORCE                      1.701E-03   TIME AVG. FORCE       1.701E-03
 LARGEST SCALED RESIDUAL FORCE      6.289E-02   AT NODE        434   DOF  2
   INSTANCE: ANCHOR-1                                                                        
  CORRESPONDING RESIDUAL FORCE      6.289E-02
 LARGEST INCREMENT OF DISP.         1.671E-04   AT NODE      10607   DOF  2
   INSTANCE: CONCRETE-1                                                                      
 LARGEST CORRECTION TO DISP.        1.671E-04   AT NODE      10607   DOF  2
   INSTANCE: CONCRETE-1                                                                      
          FORCE     EQUILIBRIUM NOT ACHIEVED WITHIN TOLERANCE.
 
	UNSYMMETRIC DIRECT SPARSE SOLVER RUNNING ON
 	1 HOST x 1 MPI RANK PER HOST x 10 THREADS PER RANK
        NUMBER OF EQUATIONS:  59208
        NUMBER OF RHS:        1
        NUMBER OF FLOPS:      5.596e+09
        SOLVER ELAPSED TIME:  108ms

                  156 SEVERE DISCONTINUITIES OCCURRED DURING THIS ITERATION.
                  151 POINTS CHANGED FROM OPEN TO CLOSED
                    5 POINTS CHANGED FROM CLOSED TO OPEN

               CONVERGENCE CHECKS FOR SEVERE DISCONTINUITY ITERATION     2

   MAX. PENETRATION ERROR 135.030E-06   AT NODE CONCRETE-1.1639 OF CONTACT PAIR 
   (GENERAL_CONTACT_FACES_4,GENERAL_CONTACT_FACES_2)
   MAX. CONTACT FORCE ERROR 4.02215     AT NODE CONCRETE-1.4759 OF CONTACT PAIR 
   (GENERAL_CONTACT_FACES_4,GENERAL_CONTACT_FACES_2)
          PENETRATION ERROR TOO LARGE COMPARED TO DISPLACEMENT INCREMENT.

 AVERAGE FORCE                      1.318E-03   TIME AVG. FORCE       1.318E-03
 LARGEST SCALED RESIDUAL FORCE     -8.925E-02   AT NODE       7694   DOF  1
   INSTANCE: CONCRETE-1                                                                      
  CORRESPONDING RESIDUAL FORCE     -8.925E-02
 LARGEST INCREMENT OF DISP.         2.298E-04   AT NODE         40   DOF  2
   INSTANCE: ANCHOR-1                                                                        
 LARGEST CORRECTION TO DISP.       -8.820E-05   AT NODE       1649   DOF  2
   INSTANCE: CONCRETE-1                                                                      
          FORCE     EQUILIBRIUM NOT ACHIEVED WITHIN TOLERANCE.
 
	UNSYMMETRIC DIRECT SPARSE SOLVER RUNNING ON
 	1 HOST x 1 MPI RANK PER HOST x 10 THREADS PER RANK
        NUMBER OF EQUATIONS:  59208
        NUMBER OF RHS:        1
        NUMBER OF FLOPS:      6.098e+09
        SOLVER ELAPSED TIME:  106ms

                   49 SEVERE DISCONTINUITIES OCCURRED DURING THIS ITERATION.
                    2 POINTS CHANGED FROM OPEN TO CLOSED
                   47 POINTS CHANGED FROM CLOSED TO OPEN

               CONVERGENCE CHECKS FOR SEVERE DISCONTINUITY ITERATION     3

   MAX. PENETRATION ERROR 2.28001E-06 AT NODE CONCRETE-1.10583 OF CONTACT PAIR 
   (GENERAL_CONTACT_FACES_4,GENERAL_CONTACT_FACES_2)
   MAX. CONTACT FORCE ERROR -90.1722E-03  AT NODE CONCRETE-1.10630 OF CONTACT 
   PAIR (GENERAL_CONTACT_FACES_4,GENERAL_CONTACT_FACES_2)
          PENETRATION ERROR TOO LARGE COMPARED TO DISPLACEMENT INCREMENT.

 AVERAGE FORCE                      1.788E-03   TIME AVG. FORCE       1.788E-03
 LARGEST SCALED RESIDUAL FORCE     -6.751E-02   AT NODE         25   DOF  1
   INSTANCE: ANCHOR-1                                                                        
  CORRESPONDING RESIDUAL FORCE     -6.751E-02
 LARGEST INCREMENT OF DISP.         1.667E-04   AT NODE          1   DOF  2
   INSTANCE: ANCHOR-1                                                                        
 LARGEST CORRECTION TO DISP.       -9.535E-05   AT NODE         26   DOF  2
   INSTANCE: ANCHOR-1                                                                        
          FORCE     EQUILIBRIUM NOT ACHIEVED WITHIN TOLERANCE.
 
	UNSYMMETRIC DIRECT SPARSE SOLVER RUNNING ON
 	1 HOST x 1 MPI RANK PER HOST x 10 THREADS PER RANK
        NUMBER OF EQUATIONS:  59208
        NUMBER OF RHS:        1
        NUMBER OF FLOPS:      6.011e+09
        SOLVER ELAPSED TIME:  109ms

                   25 SEVERE DISCONTINUITIES OCCURRED DURING THIS ITERATION.
                    5 POINTS CHANGED FROM OPEN TO CLOSED
                   20 POINTS CHANGED FROM CLOSED TO OPEN

               CONVERGENCE CHECKS FOR SEVERE DISCONTINUITY ITERATION     4

   MAX. PENETRATION ERROR 102.534E-09   AT NODE CONCRETE-1.4792 OF CONTACT PAIR 
   (GENERAL_CONTACT_FACES_4,GENERAL_CONTACT_FACES_2)
   MAX. CONTACT FORCE ERROR -51.3210E-03  AT NODE CONCRETE-1.5178 OF CONTACT 
   PAIR (GENERAL_CONTACT_FACES_4,GENERAL_CONTACT_FACES_2)
          THE ESTIMATED CONTACT FORCE ERROR IS OUTSIDE OF CONVERGENCE TOLERANCES.

 AVERAGE FORCE                      1.780E-03   TIME AVG. FORCE       1.780E-03
 LARGEST SCALED RESIDUAL FORCE      3.896E-02   AT NODE       5178   DOF  1
   INSTANCE: CONCRETE-1                                                                      
  CORRESPONDING RESIDUAL FORCE      3.896E-02
 LARGEST INCREMENT OF DISP.         1.667E-04   AT NODE          1   DOF  2
   INSTANCE: ANCHOR-1                                                                        
 LARGEST CORRECTION TO DISP.       -3.918E-06   AT NODE      10399   DOF  1
   INSTANCE: CONCRETE-1                                                                      
          FORCE     EQUILIBRIUM NOT ACHIEVED WITHIN TOLERANCE.
 
	UNSYMMETRIC DIRECT SPARSE SOLVER RUNNING ON
 	1 HOST x 1 MPI RANK PER HOST x 10 THREADS PER RANK
        NUMBER OF EQUATIONS:  59208
        NUMBER OF RHS:        1
        NUMBER OF FLOPS:      5.974e+09
        SOLVER ELAPSED TIME:  108ms

                    8 SEVERE DISCONTINUITIES OCCURRED DURING THIS ITERATION.
                    1 POINTS CHANGED FROM OPEN TO CLOSED
                    7 POINTS CHANGED FROM CLOSED TO OPEN

               CONVERGENCE CHECKS FOR SEVERE DISCONTINUITY ITERATION     5

   MAX. PENETRATION ERROR 182.300E-15   AT NODE CONCRETE-1.10591 OF CONTACT 
   PAIR (GENERAL_CONTACT_FACES_4,GENERAL_CONTACT_FACES_2)
   MAX. CONTACT FORCE ERROR -17.1800E-03  AT NODE CONCRETE-1.10523 OF CONTACT 
   PAIR (GENERAL_CONTACT_FACES_3,GENERAL_CONTACT_FACES_1)
          THE ESTIMATED CONTACT FORCE ERROR IS OUTSIDE OF CONVERGENCE TOLERANCES.

 AVERAGE FORCE                      1.784E-03   TIME AVG. FORCE       1.784E-03
 LARGEST SCALED RESIDUAL FORCE      1.271E-02   AT NODE        122   DOF  1
   INSTANCE: ANCHOR-1                                                                        
  CORRESPONDING RESIDUAL FORCE      1.271E-02
 LARGEST INCREMENT OF DISP.         1.667E-04   AT NODE          1   DOF  2
   INSTANCE: ANCHOR-1                                                                        
 LARGEST CORRECTION TO DISP.        3.523E-06   AT NODE      10591   DOF  1
   INSTANCE: CONCRETE-1                                                                      
          FORCE     EQUILIBRIUM NOT ACHIEVED WITHIN TOLERANCE.
 
	UNSYMMETRIC DIRECT SPARSE SOLVER RUNNING ON
 	1 HOST x 1 MPI RANK PER HOST x 10 THREADS PER RANK
        NUMBER OF EQUATIONS:  59208
        NUMBER OF RHS:        1
        NUMBER OF FLOPS:      5.958e+09
        SOLVER ELAPSED TIME:  105ms

                    7 SEVERE DISCONTINUITIES OCCURRED DURING THIS ITERATION.
                    1 POINTS CHANGED FROM OPEN TO CLOSED
                    6 POINTS CHANGED FROM CLOSED TO OPEN

               CONVERGENCE CHECKS FOR SEVERE DISCONTINUITY ITERATION     6

   MAX. PENETRATION ERROR -33.8312E-15  AT NODE CONCRETE-1.1640 OF CONTACT PAIR 
   (GENERAL_CONTACT_FACES_4,GENERAL_CONTACT_FACES_2)
   MAX. CONTACT FORCE ERROR -14.7363E-03  AT NODE CONCRETE-1.10522 OF CONTACT 
   PAIR (GENERAL_CONTACT_FACES_3,GENERAL_CONTACT_FACES_1)
          THE ESTIMATED CONTACT FORCE ERROR IS OUTSIDE OF CONVERGENCE TOLERANCES.

 AVERAGE FORCE                      1.781E-03   TIME AVG. FORCE       1.781E-03
 LARGEST SCALED RESIDUAL FORCE     -1.090E-02   AT NODE      10522   DOF  1
   INSTANCE: CONCRETE-1                                                                      
  CORRESPONDING RESIDUAL FORCE     -1.090E-02
 LARGEST INCREMENT OF DISP.         1.667E-04   AT NODE          1   DOF  2
   INSTANCE: ANCHOR-1                                                                        
 LARGEST CORRECTION TO DISP.       -3.972E-07   AT NODE      10523   DOF  1
   INSTANCE: CONCRETE-1                                                                      
          FORCE     EQUILIBRIUM NOT ACHIEVED WITHIN TOLERANCE.
 
	UNSYMMETRIC DIRECT SPARSE SOLVER RUNNING ON
 	1 HOST x 1 MPI RANK PER HOST x 10 THREADS PER RANK
        NUMBER OF EQUATIONS:  59208
        NUMBER OF RHS:        1
        NUMBER OF FLOPS:      5.938e+09
        SOLVER ELAPSED TIME:  98ms

                    2 SEVERE DISCONTINUITIES OCCURRED DURING THIS ITERATION.
                    2 POINTS CHANGED FROM CLOSED TO OPEN

               CONVERGENCE CHECKS FOR SEVERE DISCONTINUITY ITERATION     7

   MAX. PENETRATION ERROR 25.1717E-15  AT NODE CONCRETE-1.4749 OF CONTACT PAIR 
   (GENERAL_CONTACT_FACES_4,GENERAL_CONTACT_FACES_2)
   MAX. CONTACT FORCE ERROR -26.7851E-03  AT NODE CONCRETE-1.3308 OF CONTACT 
   PAIR (GENERAL_CONTACT_FACES_3,GENERAL_CONTACT_FACES_1)
          THE ESTIMATED CONTACT FORCE ERROR IS OUTSIDE OF CONVERGENCE TOLERANCES.

 AVERAGE FORCE                      1.781E-03   TIME AVG. FORCE       1.781E-03
 LARGEST SCALED RESIDUAL FORCE     -1.704E-02   AT NODE       3308   DOF  1
   INSTANCE: CONCRETE-1                                                                      
  CORRESPONDING RESIDUAL FORCE     -1.704E-02
 LARGEST INCREMENT OF DISP.         1.667E-04   AT NODE          1   DOF  2
   INSTANCE: ANCHOR-1                                                                        
 LARGEST CORRECTION TO DISP.        7.127E-07   AT NODE       3308   DOF  1
   INSTANCE: CONCRETE-1                                                                      
          FORCE     EQUILIBRIUM NOT ACHIEVED WITHIN TOLERANCE.
 
	UNSYMMETRIC DIRECT SPARSE SOLVER RUNNING ON
 	1 HOST x 1 MPI RANK PER HOST x 10 THREADS PER RANK
        NUMBER OF EQUATIONS:  59208
        NUMBER OF RHS:        1
        NUMBER OF FLOPS:      5.889e+09
        SOLVER ELAPSED TIME:  111ms

                    3 SEVERE DISCONTINUITIES OCCURRED DURING THIS ITERATION.
                    3 POINTS CHANGED FROM OPEN TO CLOSED

               CONVERGENCE CHECKS FOR SEVERE DISCONTINUITY ITERATION     8

   MAX. PENETRATION ERROR 196.388E-09   AT NODE CONCRETE-1.1639 OF CONTACT PAIR 
   (GENERAL_CONTACT_FACES_4,GENERAL_CONTACT_FACES_2)
   MAX. CONTACT FORCE ERROR 3.50079E-03 AT NODE CONCRETE-1.1639 OF CONTACT PAIR 
   (GENERAL_CONTACT_FACES_4,GENERAL_CONTACT_FACES_2)
          THE ESTIMATED CONTACT FORCE ERROR IS OUTSIDE OF CONVERGENCE TOLERANCES.

 AVERAGE FORCE                      1.793E-03   TIME AVG. FORCE       1.793E-03
 LARGEST SCALED RESIDUAL FORCE      2.620E-07   AT NODE       1639   DOF  1
   INSTANCE: CONCRETE-1                                                                      
  CORRESPONDING RESIDUAL FORCE      2.620E-07
 LARGEST INCREMENT OF DISP.         1.667E-04   AT NODE          1   DOF  2
   INSTANCE: ANCHOR-1                                                                        
 LARGEST CORRECTION TO DISP.        2.539E-05   AT NODE        521   DOF  1
   INSTANCE: ANCHOR-1                                                                        
          DISP.    CORRECTION TOO LARGE COMPARED TO DISP.    INCREMENT
 
	UNSYMMETRIC DIRECT SPARSE SOLVER RUNNING ON
 	1 HOST x 1 MPI RANK PER HOST x 10 THREADS PER RANK
        NUMBER OF EQUATIONS:  59208
        NUMBER OF RHS:        1
        NUMBER OF FLOPS:      5.889e+09
        SOLVER ELAPSED TIME:  106ms

               CONVERGENCE CHECKS FOR EQUILIBRIUM ITERATION     1

   MAX. PENETRATION ERROR 24.4172E-15  AT NODE CONCRETE-1.10591 OF CONTACT PAIR 
   (GENERAL_CONTACT_FACES_4,GENERAL_CONTACT_FACES_2)
   MAX. CONTACT FORCE ERROR -881.979E-12   AT NODE CONCRETE-1.10601 OF CONTACT 
   PAIR (GENERAL_CONTACT_FACES_4,GENERAL_CONTACT_FACES_2)
          THE CONTACT CONSTRAINTS HAVE CONVERGED.

 AVERAGE FORCE                      1.791E-03   TIME AVG. FORCE       1.791E-03
 LARGEST SCALED RESIDUAL FORCE      2.761E-07   AT NODE       1639   DOF  1
   INSTANCE: CONCRETE-1                                                                      
  CORRESPONDING RESIDUAL FORCE      2.761E-07
 LARGEST INCREMENT OF DISP.         1.667E-04   AT NODE          1   DOF  2
   INSTANCE: ANCHOR-1                                                                        
 LARGEST CORRECTION TO DISP.       -1.420E-07   AT NODE        474   DOF  1
   INSTANCE: ANCHOR-1                                                                        
          THE FORCE     EQUILIBRIUM EQUATIONS HAVE CONVERGED

 ITERATION SUMMARY FOR THE INCREMENT:   9 TOTAL ITERATIONS, OF WHICH
   8 ARE SEVERE DISCONTINUITY ITERATIONS AND  1 ARE EQUILIBRIUM ITERATIONS.

 TIME INCREMENT COMPLETED  1.000E-02,  FRACTION OF STEP COMPLETED  1.667E-04
 STEP TIME COMPLETED       1.000E-02,  TOTAL TIME COMPLETED        1.000E-02


  INCREMENT     2 STARTS. ATTEMPT NUMBER  1, TIME INCREMENT  1.000E-02
 
	UNSYMMETRIC DIRECT SPARSE SOLVER RUNNING ON
 	1 HOST x 1 MPI RANK PER HOST x 10 THREADS PER RANK
        NUMBER OF EQUATIONS:  59208
        NUMBER OF RHS:        1
        NUMBER OF FLOPS:      5.889e+09
        SOLVER ELAPSED TIME:  112ms

               CONVERGENCE CHECKS FOR EQUILIBRIUM ITERATION     1

   MAX. PENETRATION ERROR 30.7119E-15  AT NODE CONCRETE-1.1647 OF CONTACT PAIR 
   (GENERAL_CONTACT_FACES_3,GENERAL_CONTACT_FACES_1)
   MAX. CONTACT FORCE ERROR -1.09212E-09 AT NODE CONCRETE-1.4749 OF CONTACT 
   PAIR (GENERAL_CONTACT_FACES_4,GENERAL_CONTACT_FACES_2)
          THE CONTACT CONSTRAINTS HAVE CONVERGED.

 AVERAGE FORCE                      8.002E-03   TIME AVG. FORCE       4.897E-03
 LARGEST SCALED RESIDUAL FORCE      2.011E-08   AT NODE      10583   DOF  2
   INSTANCE: CONCRETE-1                                                                      
  CORRESPONDING RESIDUAL FORCE      2.011E-08
 LARGEST INCREMENT OF DISP.         1.667E-04   AT NODE          1   DOF  2
   INSTANCE: ANCHOR-1                                                                        
 LARGEST CORRECTION TO DISP.        8.531E-07   AT NODE      10312   DOF  2
   INSTANCE: CONCRETE-1                                                                      
          THE FORCE     EQUILIBRIUM EQUATIONS HAVE CONVERGED
          TIME INCREMENT MAY NOW INCREASE TO    1.500E-02

 ITERATION SUMMARY FOR THE INCREMENT:   1 TOTAL ITERATIONS, OF WHICH
   0 ARE SEVERE DISCONTINUITY ITERATIONS AND  1 ARE EQUILIBRIUM ITERATIONS.

 TIME INCREMENT COMPLETED  1.000E-02,  FRACTION OF STEP COMPLETED  3.333E-04
 STEP TIME COMPLETED       2.000E-02,  TOTAL TIME COMPLETED        2.000E-02


  INCREMENT     3 STARTS. ATTEMPT NUMBER  1, TIME INCREMENT  1.500E-02
 
	UNSYMMETRIC DIRECT SPARSE SOLVER RUNNING ON
 	1 HOST x 1 MPI RANK PER HOST x 10 THREADS PER RANK
        NUMBER OF EQUATIONS:  59208
        NUMBER OF RHS:        1
        NUMBER OF FLOPS:      5.889e+09
        SOLVER ELAPSED TIME:  106ms

               CONVERGENCE CHECKS FOR EQUILIBRIUM ITERATION     1

   MAX. PENETRATION ERROR 36.5201E-15  AT NODE CONCRETE-1.10598 OF CONTACT PAIR 
   (GENERAL_CONTACT_FACES_4,GENERAL_CONTACT_FACES_2)
   MAX. CONTACT FORCE ERROR 1.32913E-09 AT NODE CONCRETE-1.10598 OF CONTACT 
   PAIR (GENERAL_CONTACT_FACES_4,GENERAL_CONTACT_FACES_2)
          THE CONTACT CONSTRAINTS HAVE CONVERGED.

 AVERAGE FORCE                      1.401E-02   TIME AVG. FORCE       7.935E-03
 LARGEST SCALED RESIDUAL FORCE     -8.767E-09   AT NODE        426   DOF  1
   INSTANCE: ANCHOR-1                                                                        
  CORRESPONDING RESIDUAL FORCE     -8.767E-09
 LARGEST INCREMENT OF DISP.         2.500E-04   AT NODE          1   DOF  2
   INSTANCE: ANCHOR-1                                                                        
 LARGEST CORRECTION TO DISP.       -1.694E-06   AT NODE      10312   DOF  2
   INSTANCE: CONCRETE-1                                                                      
          THE FORCE     EQUILIBRIUM EQUATIONS HAVE CONVERGED
          TIME INCREMENT MAY NOW INCREASE TO    2.250E-02

 ITERATION SUMMARY FOR THE INCREMENT:   1 TOTAL ITERATIONS, OF WHICH
   0 ARE SEVERE DISCONTINUITY ITERATIONS AND  1 ARE EQUILIBRIUM ITERATIONS.

 TIME INCREMENT COMPLETED  1.500E-02,  FRACTION OF STEP COMPLETED  5.833E-04
 STEP TIME COMPLETED       3.500E-02,  TOTAL TIME COMPLETED        3.500E-02


  INCREMENT     4 STARTS. ATTEMPT NUMBER  1, TIME INCREMENT  2.250E-02
 
	UNSYMMETRIC DIRECT SPARSE SOLVER RUNNING ON
 	1 HOST x 1 MPI RANK PER HOST x 10 THREADS PER RANK
        NUMBER OF EQUATIONS:  59208
        NUMBER OF RHS:        1
        NUMBER OF FLOPS:      5.889e+09
        SOLVER ELAPSED TIME:  109ms

               CONVERGENCE CHECKS FOR EQUILIBRIUM ITERATION     1

   MAX. PENETRATION ERROR 27.1904E-15  AT NODE CONCRETE-1.10583 OF CONTACT PAIR 
   (GENERAL_CONTACT_FACES_4,GENERAL_CONTACT_FACES_2)
   MAX. CONTACT FORCE ERROR 849.401E-12   AT NODE CONCRETE-1.4814 OF CONTACT 
   PAIR (GENERAL_CONTACT_FACES_4,GENERAL_CONTACT_FACES_2)
          THE CONTACT CONSTRAINTS HAVE CONVERGED.

 AVERAGE FORCE                      2.294E-02   TIME AVG. FORCE       1.169E-02
 LARGEST SCALED RESIDUAL FORCE      1.786E-09   AT NODE         89   DOF  1
   INSTANCE: ANCHOR-1                                                                        
  CORRESPONDING RESIDUAL FORCE      1.786E-09
 LARGEST INCREMENT OF DISP.         3.750E-04   AT NODE          1   DOF  2
   INSTANCE: ANCHOR-1                                                                        
 LARGEST CORRECTION TO DISP.        1.765E-06   AT NODE      10312   DOF  2
   INSTANCE: CONCRETE-1                                                                      
          THE FORCE     EQUILIBRIUM EQUATIONS HAVE CONVERGED
          TIME INCREMENT MAY NOW INCREASE TO    3.375E-02

 ITERATION SUMMARY FOR THE INCREMENT:   1 TOTAL ITERATIONS, OF WHICH
   0 ARE SEVERE DISCONTINUITY ITERATIONS AND  1 ARE EQUILIBRIUM ITERATIONS.

 TIME INCREMENT COMPLETED  2.250E-02,  FRACTION OF STEP COMPLETED  9.583E-04
 STEP TIME COMPLETED       5.750E-02,  TOTAL TIME COMPLETED        5.750E-02


  INCREMENT     5 STARTS. ATTEMPT NUMBER  1, TIME INCREMENT  3.375E-02
 
	UNSYMMETRIC DIRECT SPARSE SOLVER RUNNING ON
 	1 HOST x 1 MPI RANK PER HOST x 10 THREADS PER RANK
        NUMBER OF EQUATIONS:  59208
        NUMBER OF RHS:        1
        NUMBER OF FLOPS:      5.889e+09
        SOLVER ELAPSED TIME:  108ms

               CONVERGENCE CHECKS FOR EQUILIBRIUM ITERATION     1

   MAX. PENETRATION ERROR 26.6615E-15  AT NODE CONCRETE-1.4749 OF CONTACT PAIR 
   (GENERAL_CONTACT_FACES_4,GENERAL_CONTACT_FACES_2)
   MAX. CONTACT FORCE ERROR 970.329E-12   AT NODE CONCRETE-1.4749 OF CONTACT 
   PAIR (GENERAL_CONTACT_FACES_4,GENERAL_CONTACT_FACES_2)
          THE CONTACT CONSTRAINTS HAVE CONVERGED.

 AVERAGE FORCE                      3.637E-02   TIME AVG. FORCE       1.662E-02
 LARGEST SCALED RESIDUAL FORCE     -2.246E-10   AT NODE       6496   DOF  1
   INSTANCE: CONCRETE-1                                                                      
  CORRESPONDING RESIDUAL FORCE     -2.246E-10
 LARGEST INCREMENT OF DISP.         5.625E-04   AT NODE          1   DOF  2
   INSTANCE: ANCHOR-1                                                                        
 LARGEST CORRECTION TO DISP.       -1.433E-06   AT NODE      10312   DOF  2
   INSTANCE: CONCRETE-1                                                                      
          THE FORCE     EQUILIBRIUM EQUATIONS HAVE CONVERGED
          TIME INCREMENT MAY NOW INCREASE TO    5.063E-02

 ITERATION SUMMARY FOR THE INCREMENT:   1 TOTAL ITERATIONS, OF WHICH
   0 ARE SEVERE DISCONTINUITY ITERATIONS AND  1 ARE EQUILIBRIUM ITERATIONS.

 TIME INCREMENT COMPLETED  3.375E-02,  FRACTION OF STEP COMPLETED  1.521E-03
 STEP TIME COMPLETED       9.125E-02,  TOTAL TIME COMPLETED        9.125E-02


  INCREMENT     6 STARTS. ATTEMPT NUMBER  1, TIME INCREMENT  5.063E-02
 
	UNSYMMETRIC DIRECT SPARSE SOLVER RUNNING ON
 	1 HOST x 1 MPI RANK PER HOST x 10 THREADS PER RANK
        NUMBER OF EQUATIONS:  59208
        NUMBER OF RHS:        1
        NUMBER OF FLOPS:      5.889e+09
        SOLVER ELAPSED TIME:  96ms

               CONVERGENCE CHECKS FOR EQUILIBRIUM ITERATION     1

   MAX. PENETRATION ERROR -33.0556E-15  AT NODE CONCRETE-1.10539 OF CONTACT 
   PAIR (GENERAL_CONTACT_FACES_3,GENERAL_CONTACT_FACES_1)
   MAX. CONTACT FORCE ERROR -1.03118E-09 AT NODE CONCRETE-1.10539 OF CONTACT 
   PAIR (GENERAL_CONTACT_FACES_3,GENERAL_CONTACT_FACES_1)
          THE CONTACT CONSTRAINTS HAVE CONVERGED.

 AVERAGE FORCE                      5.644E-02   TIME AVG. FORCE       2.326E-02
 LARGEST SCALED RESIDUAL FORCE      2.389E-10   AT NODE        487   DOF  2
   INSTANCE: ANCHOR-1                                                                        
  CORRESPONDING RESIDUAL FORCE      2.389E-10
 LARGEST INCREMENT OF DISP.         8.438E-04   AT NODE          1   DOF  2
   INSTANCE: ANCHOR-1                                                                        
 LARGEST CORRECTION TO DISP.        1.051E-06   AT NODE      10312   DOF  2
   INSTANCE: CONCRETE-1                                                                      
          THE FORCE     EQUILIBRIUM EQUATIONS HAVE CONVERGED
          TIME INCREMENT MAY NOW INCREASE TO    7.594E-02

 ITERATION SUMMARY FOR THE INCREMENT:   1 TOTAL ITERATIONS, OF WHICH
   0 ARE SEVERE DISCONTINUITY ITERATIONS AND  1 ARE EQUILIBRIUM ITERATIONS.

 TIME INCREMENT COMPLETED  5.063E-02,  FRACTION OF STEP COMPLETED  2.365E-03
 STEP TIME COMPLETED       0.142    ,  TOTAL TIME COMPLETED        0.142    


  INCREMENT     7 STARTS. ATTEMPT NUMBER  1, TIME INCREMENT  7.594E-02
 
	UNSYMMETRIC DIRECT SPARSE SOLVER RUNNING ON
 	1 HOST x 1 MPI RANK PER HOST x 10 THREADS PER RANK
        NUMBER OF EQUATIONS:  59208
        NUMBER OF RHS:        1
        NUMBER OF FLOPS:      5.889e+09
        SOLVER ELAPSED TIME:  98ms

               CONVERGENCE CHECKS FOR EQUILIBRIUM ITERATION     1

   MAX. PENETRATION ERROR 30.1414E-15  AT NODE CONCRETE-1.4792 OF CONTACT PAIR 
   (GENERAL_CONTACT_FACES_4,GENERAL_CONTACT_FACES_2)
   MAX. CONTACT FORCE ERROR 1.09698E-09 AT NODE CONCRETE-1.4792 OF CONTACT PAIR 
   (GENERAL_CONTACT_FACES_4,GENERAL_CONTACT_FACES_2)
          THE CONTACT CONSTRAINTS HAVE CONVERGED.

 AVERAGE FORCE                      8.648E-02   TIME AVG. FORCE       3.229E-02
 LARGEST SCALED RESIDUAL FORCE      5.343E-10   AT NODE        487   DOF  2
   INSTANCE: ANCHOR-1                                                                        
  CORRESPONDING RESIDUAL FORCE      5.343E-10
 LARGEST INCREMENT OF DISP.         1.266E-03   AT NODE          1   DOF  2
   INSTANCE: ANCHOR-1                                                                        
 LARGEST CORRECTION TO DISP.       -7.393E-07   AT NODE      10312   DOF  2
   INSTANCE: CONCRETE-1                                                                      
          THE FORCE     EQUILIBRIUM EQUATIONS HAVE CONVERGED
          TIME INCREMENT MAY NOW INCREASE TO    0.114    

 ITERATION SUMMARY FOR THE INCREMENT:   1 TOTAL ITERATIONS, OF WHICH
   0 ARE SEVERE DISCONTINUITY ITERATIONS AND  1 ARE EQUILIBRIUM ITERATIONS.

 TIME INCREMENT COMPLETED  7.594E-02,  FRACTION OF STEP COMPLETED  3.630E-03
 STEP TIME COMPLETED       0.218    ,  TOTAL TIME COMPLETED        0.218    


  INCREMENT     8 STARTS. ATTEMPT NUMBER  1, TIME INCREMENT  0.114    
 
	UNSYMMETRIC DIRECT SPARSE SOLVER RUNNING ON
 	1 HOST x 1 MPI RANK PER HOST x 10 THREADS PER RANK
        NUMBER OF EQUATIONS:  59208
        NUMBER OF RHS:        1
        NUMBER OF FLOPS:      5.889e+09
        SOLVER ELAPSED TIME:  108ms

               CONVERGENCE CHECKS FOR EQUILIBRIUM ITERATION     1

   MAX. PENETRATION ERROR -29.3067E-15  AT NODE CONCRETE-1.1639 OF CONTACT PAIR 
   (GENERAL_CONTACT_FACES_4,GENERAL_CONTACT_FACES_2)
   MAX. CONTACT FORCE ERROR -895.120E-12   AT NODE CONCRETE-1.4742 OF CONTACT 
   PAIR (GENERAL_CONTACT_FACES_4,GENERAL_CONTACT_FACES_2)
          THE CONTACT CONSTRAINTS HAVE CONVERGED.

 AVERAGE FORCE                      0.132       TIME AVG. FORCE       4.470E-02
 LARGEST SCALED RESIDUAL FORCE      1.205E-09   AT NODE        487   DOF  2
   INSTANCE: ANCHOR-1                                                                        
  CORRESPONDING RESIDUAL FORCE      1.205E-09
 LARGEST INCREMENT OF DISP.         1.898E-03   AT NODE          1   DOF  2
   INSTANCE: ANCHOR-1                                                                        
 LARGEST CORRECTION TO DISP.        5.239E-07   AT NODE      10312   DOF  2
   INSTANCE: CONCRETE-1                                                                      
          THE FORCE     EQUILIBRIUM EQUATIONS HAVE CONVERGED
          TIME INCREMENT MAY NOW INCREASE TO    0.171    

 ITERATION SUMMARY FOR THE INCREMENT:   1 TOTAL ITERATIONS, OF WHICH
   0 ARE SEVERE DISCONTINUITY ITERATIONS AND  1 ARE EQUILIBRIUM ITERATIONS.

 TIME INCREMENT COMPLETED  0.114    ,  FRACTION OF STEP COMPLETED  5.529E-03
 STEP TIME COMPLETED       0.332    ,  TOTAL TIME COMPLETED        0.332    


  INCREMENT     9 STARTS. ATTEMPT NUMBER  1, TIME INCREMENT  0.171    
 
	UNSYMMETRIC DIRECT SPARSE SOLVER RUNNING ON
 	1 HOST x 1 MPI RANK PER HOST x 10 THREADS PER RANK
        NUMBER OF EQUATIONS:  59208
        NUMBER OF RHS:        1
        NUMBER OF FLOPS:      5.889e+09
        SOLVER ELAPSED TIME:  96ms

               CONVERGENCE CHECKS FOR EQUILIBRIUM ITERATION     1

   MAX. PENETRATION ERROR 35.3758E-15  AT NODE CONCRETE-1.10537 OF CONTACT PAIR 
   (GENERAL_CONTACT_FACES_3,GENERAL_CONTACT_FACES_1)
   MAX. CONTACT FORCE ERROR 1.28748E-09 AT NODE CONCRETE-1.10537 OF CONTACT 
   PAIR (GENERAL_CONTACT_FACES_3,GENERAL_CONTACT_FACES_1)
          THE CONTACT CONSTRAINTS HAVE CONVERGED.

 AVERAGE FORCE                      0.199       TIME AVG. FORCE       6.184E-02
 LARGEST SCALED RESIDUAL FORCE      2.703E-09   AT NODE        487   DOF  2
   INSTANCE: ANCHOR-1                                                                        
  CORRESPONDING RESIDUAL FORCE      2.703E-09
 LARGEST INCREMENT OF DISP.         2.848E-03   AT NODE          1   DOF  2
   INSTANCE: ANCHOR-1                                                                        
 LARGEST CORRECTION TO DISP.       -3.534E-07   AT NODE      10312   DOF  2
   INSTANCE: CONCRETE-1                                                                      
          THE FORCE     EQUILIBRIUM EQUATIONS HAVE CONVERGED
          TIME INCREMENT MAY NOW INCREASE TO    0.256    

 ITERATION SUMMARY FOR THE INCREMENT:   1 TOTAL ITERATIONS, OF WHICH
   0 ARE SEVERE DISCONTINUITY ITERATIONS AND  1 ARE EQUILIBRIUM ITERATIONS.

 TIME INCREMENT COMPLETED  0.171    ,  FRACTION OF STEP COMPLETED  8.376E-03
 STEP TIME COMPLETED       0.503    ,  TOTAL TIME COMPLETED        0.503    


  INCREMENT    10 STARTS. ATTEMPT NUMBER  1, TIME INCREMENT  0.256    
 
	UNSYMMETRIC DIRECT SPARSE SOLVER RUNNING ON
 	1 HOST x 1 MPI RANK PER HOST x 10 THREADS PER RANK
        NUMBER OF EQUATIONS:  59208
        NUMBER OF RHS:        1
        NUMBER OF FLOPS:      5.889e+09
        SOLVER ELAPSED TIME:  114ms

               CONVERGENCE CHECKS FOR EQUILIBRIUM ITERATION     1

   MAX. PENETRATION ERROR 29.9069E-15  AT NODE CONCRETE-1.2064 OF CONTACT PAIR 
   (GENERAL_CONTACT_FACES_3,GENERAL_CONTACT_FACES_1)
   MAX. CONTACT FORCE ERROR 932.953E-12   AT NODE CONCRETE-1.2064 OF CONTACT 
   PAIR (GENERAL_CONTACT_FACES_3,GENERAL_CONTACT_FACES_1)
          THE CONTACT CONSTRAINTS HAVE CONVERGED.

 AVERAGE FORCE                      0.300       TIME AVG. FORCE       8.567E-02
 LARGEST SCALED RESIDUAL FORCE      6.070E-09   AT NODE        487   DOF  2
   INSTANCE: ANCHOR-1                                                                        
  CORRESPONDING RESIDUAL FORCE      6.070E-09
 LARGEST INCREMENT OF DISP.         4.271E-03   AT NODE          1   DOF  2
   INSTANCE: ANCHOR-1                                                                        
 LARGEST CORRECTION TO DISP.        2.808E-07   AT NODE      10312   DOF  2
   INSTANCE: CONCRETE-1                                                                      
          THE FORCE     EQUILIBRIUM EQUATIONS HAVE CONVERGED
          TIME INCREMENT MAY NOW INCREASE TO    0.384    

 ITERATION SUMMARY FOR THE INCREMENT:   1 TOTAL ITERATIONS, OF WHICH
   0 ARE SEVERE DISCONTINUITY ITERATIONS AND  1 ARE EQUILIBRIUM ITERATIONS.

 TIME INCREMENT COMPLETED  0.256    ,  FRACTION OF STEP COMPLETED  1.265E-02
 STEP TIME COMPLETED       0.759    ,  TOTAL TIME COMPLETED        0.759    


  INCREMENT    11 STARTS. ATTEMPT NUMBER  1, TIME INCREMENT  0.384    
 
	UNSYMMETRIC DIRECT SPARSE SOLVER RUNNING ON
 	1 HOST x 1 MPI RANK PER HOST x 10 THREADS PER RANK
        NUMBER OF EQUATIONS:  59208
        NUMBER OF RHS:        1
        NUMBER OF FLOPS:      5.889e+09
        SOLVER ELAPSED TIME:  100ms

               CONVERGENCE CHECKS FOR EQUILIBRIUM ITERATION     1

   MAX. PENETRATION ERROR 42.2842E-15  AT NODE CONCRETE-1.6552 OF CONTACT PAIR 
   (GENERAL_CONTACT_FACES_3,GENERAL_CONTACT_FACES_1)
   MAX. CONTACT FORCE ERROR 1.53891E-09 AT NODE CONCRETE-1.6552 OF CONTACT PAIR 
   (GENERAL_CONTACT_FACES_3,GENERAL_CONTACT_FACES_1)
          THE CONTACT CONSTRAINTS HAVE CONVERGED.

 AVERAGE FORCE                      0.452       TIME AVG. FORCE       0.119    
 LARGEST SCALED RESIDUAL FORCE      1.358E-08   AT NODE        487   DOF  2
   INSTANCE: ANCHOR-1                                                                        
  CORRESPONDING RESIDUAL FORCE      1.358E-08
 LARGEST INCREMENT OF DISP.         6.407E-03   AT NODE          1   DOF  2
   INSTANCE: ANCHOR-1                                                                        
 LARGEST CORRECTION TO DISP.       -2.396E-07   AT NODE      10532   DOF  1
   INSTANCE: CONCRETE-1                                                                      
          THE FORCE     EQUILIBRIUM EQUATIONS HAVE CONVERGED
          TIME INCREMENT MAY NOW INCREASE TO    0.500    

 ITERATION SUMMARY FOR THE INCREMENT:   1 TOTAL ITERATIONS, OF WHICH
   0 ARE SEVERE DISCONTINUITY ITERATIONS AND  1 ARE EQUILIBRIUM ITERATIONS.

 TIME INCREMENT COMPLETED  0.384    ,  FRACTION OF STEP COMPLETED  1.906E-02
 STEP TIME COMPLETED        1.14    ,  TOTAL TIME COMPLETED         1.14    


  INCREMENT    12 STARTS. ATTEMPT NUMBER  1, TIME INCREMENT  0.500    
 
	UNSYMMETRIC DIRECT SPARSE SOLVER RUNNING ON
 	1 HOST x 1 MPI RANK PER HOST x 10 THREADS PER RANK
        NUMBER OF EQUATIONS:  59208
        NUMBER OF RHS:        1
        NUMBER OF FLOPS:      5.889e+09
        SOLVER ELAPSED TIME:  92ms

                   12 SEVERE DISCONTINUITIES OCCURRED DURING THIS ITERATION.
                   12 POINTS CHANGED FROM OPEN TO CLOSED

               CONVERGENCE CHECKS FOR SEVERE DISCONTINUITY ITERATION     1

   MAX. PENETRATION ERROR 4.60799E-12 AT NODE ANCHOR-1.80 OF CONTACT PAIR 
   (GENERAL_CONTACT_EDGES_1,GENERAL_CONTACT_FACES_3)
   MAX. CONTACT FORCE ERROR 388.766E-09   AT NODE ANCHOR-1.80 OF CONTACT PAIR 
   (GENERAL_CONTACT_EDGES_1,GENERAL_CONTACT_FACES_3)
          THE CONTACT CONSTRAINT ERRORS ARE WITHIN THE TOLERANCES.

 AVERAGE FORCE                      0.649       TIME AVG. FORCE       0.163    
 LARGEST SCALED RESIDUAL FORCE     -4.438E-07   AT NODE        428   DOF  1
   INSTANCE: ANCHOR-1                                                                        
  CORRESPONDING RESIDUAL FORCE     -4.438E-07
 LARGEST INCREMENT OF DISP.         8.333E-03   AT NODE          1   DOF  2
   INSTANCE: ANCHOR-1                                                                        
 LARGEST CORRECTION TO DISP.        9.161E-07   AT NODE        419   DOF  2
   INSTANCE: ANCHOR-1                                                                        
          THE FORCE     EQUILIBRIUM EQUATIONS HAVE CONVERGED

 ITERATION SUMMARY FOR THE INCREMENT:   1 TOTAL ITERATIONS, OF WHICH
   1 ARE SEVERE DISCONTINUITY ITERATIONS AND  0 ARE EQUILIBRIUM ITERATIONS.

 TIME INCREMENT COMPLETED  0.500    ,  FRACTION OF STEP COMPLETED  2.739E-02
 STEP TIME COMPLETED        1.64    ,  TOTAL TIME COMPLETED         1.64    


  INCREMENT    13 STARTS. ATTEMPT NUMBER  1, TIME INCREMENT  0.500    
 
	UNSYMMETRIC DIRECT SPARSE SOLVER RUNNING ON
 	1 HOST x 1 MPI RANK PER HOST x 10 THREADS PER RANK
        NUMBER OF EQUATIONS:  59208
        NUMBER OF RHS:        1
        NUMBER OF FLOPS:      6.141e+09
        SOLVER ELAPSED TIME:  96ms

               CONVERGENCE CHECKS FOR EQUILIBRIUM ITERATION     1

   MAX. PENETRATION ERROR 574.731E-15   AT NODE CONCRETE-1.1639 OF CONTACT PAIR 
   (GENERAL_CONTACT_FACES_4,GENERAL_CONTACT_FACES_2)
   MAX. CONTACT FORCE ERROR 10.2472E-09  AT NODE CONCRETE-1.1639 OF CONTACT 
   PAIR (GENERAL_CONTACT_FACES_4,GENERAL_CONTACT_FACES_2)
          THE CONTACT CONSTRAINTS HAVE CONVERGED.

 AVERAGE FORCE                      0.846       TIME AVG. FORCE       0.216    
 LARGEST SCALED RESIDUAL FORCE      1.715E-06   AT NODE      10583   DOF  2
   INSTANCE: CONCRETE-1                                                                      
  CORRESPONDING RESIDUAL FORCE      1.715E-06
 LARGEST INCREMENT OF DISP.         8.333E-03   AT NODE          1   DOF  2
   INSTANCE: ANCHOR-1                                                                        
 LARGEST CORRECTION TO DISP.        1.593E-06   AT NODE        474   DOF  2
   INSTANCE: ANCHOR-1                                                                        
          THE FORCE     EQUILIBRIUM EQUATIONS HAVE CONVERGED

 ITERATION SUMMARY FOR THE INCREMENT:   1 TOTAL ITERATIONS, OF WHICH
   0 ARE SEVERE DISCONTINUITY ITERATIONS AND  1 ARE EQUILIBRIUM ITERATIONS.

 TIME INCREMENT COMPLETED  0.500    ,  FRACTION OF STEP COMPLETED  3.572E-02
 STEP TIME COMPLETED        2.14    ,  TOTAL TIME COMPLETED         2.14    


  INCREMENT    14 STARTS. ATTEMPT NUMBER  1, TIME INCREMENT  0.500    
 
	UNSYMMETRIC DIRECT SPARSE SOLVER RUNNING ON
 	1 HOST x 1 MPI RANK PER HOST x 10 THREADS PER RANK
        NUMBER OF EQUATIONS:  59208
        NUMBER OF RHS:        1
        NUMBER OF FLOPS:      6.141e+09
        SOLVER ELAPSED TIME:  94ms

               CONVERGENCE CHECKS FOR EQUILIBRIUM ITERATION     1

   MAX. PENETRATION ERROR -34.9027E-15  AT NODE CONCRETE-1.10583 OF CONTACT 
   PAIR (GENERAL_CONTACT_FACES_4,GENERAL_CONTACT_FACES_2)
   MAX. CONTACT FORCE ERROR -1.25810E-09 AT NODE CONCRETE-1.6569 OF CONTACT 
   PAIR (GENERAL_CONTACT_FACES_3,GENERAL_CONTACT_FACES_1)
          THE CONTACT CONSTRAINTS HAVE CONVERGED.

 AVERAGE FORCE                       1.04       TIME AVG. FORCE       0.275    
 LARGEST SCALED RESIDUAL FORCE     -1.770E-07   AT NODE         89   DOF  1
   INSTANCE: ANCHOR-1                                                                        
  CORRESPONDING RESIDUAL FORCE     -1.770E-07
 LARGEST INCREMENT OF DISP.         8.333E-03   AT NODE          1   DOF  2
   INSTANCE: ANCHOR-1                                                                        
 LARGEST CORRECTION TO DISP.        4.663E-07   AT NODE      10602   DOF  1
   INSTANCE: CONCRETE-1                                                                      
          THE FORCE     EQUILIBRIUM EQUATIONS HAVE CONVERGED

 ITERATION SUMMARY FOR THE INCREMENT:   1 TOTAL ITERATIONS, OF WHICH
   0 ARE SEVERE DISCONTINUITY ITERATIONS AND  1 ARE EQUILIBRIUM ITERATIONS.

 TIME INCREMENT COMPLETED  0.500    ,  FRACTION OF STEP COMPLETED  4.406E-02
 STEP TIME COMPLETED        2.64    ,  TOTAL TIME COMPLETED         2.64    


  INCREMENT    15 STARTS. ATTEMPT NUMBER  1, TIME INCREMENT  0.500    
 
	UNSYMMETRIC DIRECT SPARSE SOLVER RUNNING ON
 	1 HOST x 1 MPI RANK PER HOST x 10 THREADS PER RANK
        NUMBER OF EQUATIONS:  59208
        NUMBER OF RHS:        1
        NUMBER OF FLOPS:      6.141e+09
        SOLVER ELAPSED TIME:  88ms

                    8 SEVERE DISCONTINUITIES OCCURRED DURING THIS ITERATION.
                    8 POINTS CHANGED FROM OPEN TO CLOSED

               CONVERGENCE CHECKS FOR SEVERE DISCONTINUITY ITERATION     1

   MAX. PENETRATION ERROR 11.8291E-12  AT NODE CONCRETE-1.1639 OF CONTACT PAIR 
   (GENERAL_CONTACT_EDGES_4,GENERAL_CONTACT_FACES_2)
   MAX. CONTACT FORCE ERROR 293.848E-09   AT NODE ANCHOR-1.474 OF CONTACT PAIR 
   (GENERAL_CONTACT_EDGES_2,GENERAL_CONTACT_FACES_4)
          THE CONTACT CONSTRAINT ERRORS ARE WITHIN THE TOLERANCES.

 AVERAGE FORCE                       1.24       TIME AVG. FORCE       0.339    
 LARGEST SCALED RESIDUAL FORCE     -3.738E-08   AT NODE      10528   DOF  1
   INSTANCE: CONCRETE-1                                                                      
  CORRESPONDING RESIDUAL FORCE     -3.738E-08
 LARGEST INCREMENT OF DISP.         8.333E-03   AT NODE          1   DOF  2
   INSTANCE: ANCHOR-1                                                                        
 LARGEST CORRECTION TO DISP.       -3.930E-07   AT NODE      10532   DOF  1
   INSTANCE: CONCRETE-1                                                                      
          THE FORCE     EQUILIBRIUM EQUATIONS HAVE CONVERGED

 ITERATION SUMMARY FOR THE INCREMENT:   1 TOTAL ITERATIONS, OF WHICH
   1 ARE SEVERE DISCONTINUITY ITERATIONS AND  0 ARE EQUILIBRIUM ITERATIONS.

 TIME INCREMENT COMPLETED  0.500    ,  FRACTION OF STEP COMPLETED  5.239E-02
 STEP TIME COMPLETED        3.14    ,  TOTAL TIME COMPLETED         3.14    


  INCREMENT    16 STARTS. ATTEMPT NUMBER  1, TIME INCREMENT  0.500    
 
	UNSYMMETRIC DIRECT SPARSE SOLVER RUNNING ON
 	1 HOST x 1 MPI RANK PER HOST x 10 THREADS PER RANK
        NUMBER OF EQUATIONS:  59208
        NUMBER OF RHS:        1
        NUMBER OF FLOPS:      6.141e+09
        SOLVER ELAPSED TIME:  95ms

                    8 SEVERE DISCONTINUITIES OCCURRED DURING THIS ITERATION.
                    8 POINTS CHANGED FROM OPEN TO CLOSED

               CONVERGENCE CHECKS FOR SEVERE DISCONTINUITY ITERATION     1

   MAX. PENETRATION ERROR 1.93244E-12 AT NODE CONCRETE-1.4759 OF CONTACT PAIR 
   (GENERAL_CONTACT_EDGES_4,GENERAL_CONTACT_FACES_2)
   MAX. CONTACT FORCE ERROR 100.313E-09   AT NODE CONCRETE-1.4759 OF CONTACT 
   PAIR (GENERAL_CONTACT_EDGES_4,GENERAL_CONTACT_FACES_2)
          THE CONTACT CONSTRAINT ERRORS ARE WITHIN THE TOLERANCES.

 AVERAGE FORCE                       1.44       TIME AVG. FORCE       0.408    
 LARGEST SCALED RESIDUAL FORCE      2.691E-08   AT NODE        487   DOF  2
   INSTANCE: ANCHOR-1                                                                        
  CORRESPONDING RESIDUAL FORCE      2.691E-08
 LARGEST INCREMENT OF DISP.         8.333E-03   AT NODE          1   DOF  2
   INSTANCE: ANCHOR-1                                                                        
 LARGEST CORRECTION TO DISP.        4.149E-07   AT NODE      10602   DOF  1
   INSTANCE: CONCRETE-1                                                                      
          THE FORCE     EQUILIBRIUM EQUATIONS HAVE CONVERGED

 ITERATION SUMMARY FOR THE INCREMENT:   1 TOTAL ITERATIONS, OF WHICH
   1 ARE SEVERE DISCONTINUITY ITERATIONS AND  0 ARE EQUILIBRIUM ITERATIONS.

 TIME INCREMENT COMPLETED  0.500    ,  FRACTION OF STEP COMPLETED  6.072E-02
 STEP TIME COMPLETED        3.64    ,  TOTAL TIME COMPLETED         3.64    


  INCREMENT    17 STARTS. ATTEMPT NUMBER  1, TIME INCREMENT  0.500    
 
	UNSYMMETRIC DIRECT SPARSE SOLVER RUNNING ON
 	1 HOST x 1 MPI RANK PER HOST x 10 THREADS PER RANK
        NUMBER OF EQUATIONS:  59208
        NUMBER OF RHS:        1
        NUMBER OF FLOPS:      6.141e+09
        SOLVER ELAPSED TIME:  99ms

               CONVERGENCE CHECKS FOR EQUILIBRIUM ITERATION     1

   MAX. PENETRATION ERROR -35.4448E-15  AT NODE CONCRETE-1.10606 OF CONTACT 
   PAIR (GENERAL_CONTACT_FACES_4,GENERAL_CONTACT_FACES_2)
   MAX. CONTACT FORCE ERROR -1.29011E-09 AT NODE CONCRETE-1.10606 OF CONTACT 
   PAIR (GENERAL_CONTACT_FACES_4,GENERAL_CONTACT_FACES_2)
          THE CONTACT CONSTRAINTS HAVE CONVERGED.

 AVERAGE FORCE                       1.64       TIME AVG. FORCE       0.481    
 LARGEST SCALED RESIDUAL FORCE      2.688E-08   AT NODE        487   DOF  2
   INSTANCE: ANCHOR-1                                                                        
  CORRESPONDING RESIDUAL FORCE      2.688E-08
 LARGEST INCREMENT OF DISP.         8.333E-03   AT NODE          1   DOF  2
   INSTANCE: ANCHOR-1                                                                        
 LARGEST CORRECTION TO DISP.        3.899E-07   AT NODE      10602   DOF  1
   INSTANCE: CONCRETE-1                                                                      
          THE FORCE     EQUILIBRIUM EQUATIONS HAVE CONVERGED

 ITERATION SUMMARY FOR THE INCREMENT:   1 TOTAL ITERATIONS, OF WHICH
   0 ARE SEVERE DISCONTINUITY ITERATIONS AND  1 ARE EQUILIBRIUM ITERATIONS.

 TIME INCREMENT COMPLETED  0.500    ,  FRACTION OF STEP COMPLETED  6.906E-02
 STEP TIME COMPLETED        4.14    ,  TOTAL TIME COMPLETED         4.14    


  INCREMENT    18 STARTS. ATTEMPT NUMBER  1, TIME INCREMENT  0.500    
 
	UNSYMMETRIC DIRECT SPARSE SOLVER RUNNING ON
 	1 HOST x 1 MPI RANK PER HOST x 10 THREADS PER RANK
        NUMBER OF EQUATIONS:  59208
        NUMBER OF RHS:        1
        NUMBER OF FLOPS:      6.141e+09
        SOLVER ELAPSED TIME:  89ms

               CONVERGENCE CHECKS FOR EQUILIBRIUM ITERATION     1

   MAX. PENETRATION ERROR 34.2421E-15  AT NODE CONCRETE-1.6524 OF CONTACT PAIR 
   (GENERAL_CONTACT_FACES_3,GENERAL_CONTACT_FACES_1)
   MAX. CONTACT FORCE ERROR 1.24625E-09 AT NODE CONCRETE-1.6524 OF CONTACT PAIR 
   (GENERAL_CONTACT_FACES_3,GENERAL_CONTACT_FACES_1)
          THE CONTACT CONSTRAINTS HAVE CONVERGED.

 AVERAGE FORCE                       1.84       TIME AVG. FORCE       0.556    
 LARGEST SCALED RESIDUAL FORCE      2.677E-08   AT NODE        487   DOF  2
   INSTANCE: ANCHOR-1                                                                        
  CORRESPONDING RESIDUAL FORCE      2.677E-08
 LARGEST INCREMENT OF DISP.         8.333E-03   AT NODE          1   DOF  2
   INSTANCE: ANCHOR-1                                                                        
 LARGEST CORRECTION TO DISP.        3.949E-07   AT NODE      10602   DOF  1
   INSTANCE: CONCRETE-1                                                                      
          THE FORCE     EQUILIBRIUM EQUATIONS HAVE CONVERGED

 ITERATION SUMMARY FOR THE INCREMENT:   1 TOTAL ITERATIONS, OF WHICH
   0 ARE SEVERE DISCONTINUITY ITERATIONS AND  1 ARE EQUILIBRIUM ITERATIONS.

 TIME INCREMENT COMPLETED  0.500    ,  FRACTION OF STEP COMPLETED  7.739E-02
 STEP TIME COMPLETED        4.64    ,  TOTAL TIME COMPLETED         4.64    


  INCREMENT    19 STARTS. ATTEMPT NUMBER  1, TIME INCREMENT  0.500    
 
	UNSYMMETRIC DIRECT SPARSE SOLVER RUNNING ON
 	1 HOST x 1 MPI RANK PER HOST x 10 THREADS PER RANK
        NUMBER OF EQUATIONS:  59208
        NUMBER OF RHS:        1
        NUMBER OF FLOPS:      6.141e+09
        SOLVER ELAPSED TIME:  101ms

               CONVERGENCE CHECKS FOR EQUILIBRIUM ITERATION     1

   MAX. PENETRATION ERROR -49.6421E-15  AT NODE CONCRETE-1.1636 OF CONTACT PAIR 
   (GENERAL_CONTACT_FACES_4,GENERAL_CONTACT_FACES_2)
   MAX. CONTACT FORCE ERROR -1.22713E-09 AT NODE CONCRETE-1.10528 OF CONTACT 
   PAIR (GENERAL_CONTACT_FACES_3,GENERAL_CONTACT_FACES_1)
          THE CONTACT CONSTRAINTS HAVE CONVERGED.

 AVERAGE FORCE                       2.04       TIME AVG. FORCE       0.634    
 LARGEST SCALED RESIDUAL FORCE      2.672E-08   AT NODE        487   DOF  2
   INSTANCE: ANCHOR-1                                                                        
  CORRESPONDING RESIDUAL FORCE      2.672E-08
 LARGEST INCREMENT OF DISP.         8.333E-03   AT NODE          1   DOF  2
   INSTANCE: ANCHOR-1                                                                        
 LARGEST CORRECTION TO DISP.        3.806E-07   AT NODE      10602   DOF  1
   INSTANCE: CONCRETE-1                                                                      
          THE FORCE     EQUILIBRIUM EQUATIONS HAVE CONVERGED

 ITERATION SUMMARY FOR THE INCREMENT:   1 TOTAL ITERATIONS, OF WHICH
   0 ARE SEVERE DISCONTINUITY ITERATIONS AND  1 ARE EQUILIBRIUM ITERATIONS.

 TIME INCREMENT COMPLETED  0.500    ,  FRACTION OF STEP COMPLETED  8.572E-02
 STEP TIME COMPLETED        5.14    ,  TOTAL TIME COMPLETED         5.14    


  INCREMENT    20 STARTS. ATTEMPT NUMBER  1, TIME INCREMENT  0.500    
 
	UNSYMMETRIC DIRECT SPARSE SOLVER RUNNING ON
 	1 HOST x 1 MPI RANK PER HOST x 10 THREADS PER RANK
        NUMBER OF EQUATIONS:  59208
        NUMBER OF RHS:        1
        NUMBER OF FLOPS:      6.141e+09
        SOLVER ELAPSED TIME:  107ms

               CONVERGENCE CHECKS FOR EQUILIBRIUM ITERATION     1

   MAX. PENETRATION ERROR 35.5822E-15  AT NODE CONCRETE-1.10599 OF CONTACT PAIR 
   (GENERAL_CONTACT_FACES_4,GENERAL_CONTACT_FACES_2)
   MAX. CONTACT FORCE ERROR 1.29501E-09 AT NODE CONCRETE-1.10599 OF CONTACT 
   PAIR (GENERAL_CONTACT_FACES_4,GENERAL_CONTACT_FACES_2)
          THE CONTACT CONSTRAINTS HAVE CONVERGED.

 AVERAGE FORCE                       2.24       TIME AVG. FORCE       0.714    
 LARGEST SCALED RESIDUAL FORCE      2.663E-08   AT NODE        487   DOF  2
   INSTANCE: ANCHOR-1                                                                        
  CORRESPONDING RESIDUAL FORCE      2.663E-08
 LARGEST INCREMENT OF DISP.         8.333E-03   AT NODE          1   DOF  2
   INSTANCE: ANCHOR-1                                                                        
 LARGEST CORRECTION TO DISP.        3.794E-07   AT NODE      10602   DOF  1
   INSTANCE: CONCRETE-1                                                                      
          THE FORCE     EQUILIBRIUM EQUATIONS HAVE CONVERGED

 ITERATION SUMMARY FOR THE INCREMENT:   1 TOTAL ITERATIONS, OF WHICH
   0 ARE SEVERE DISCONTINUITY ITERATIONS AND  1 ARE EQUILIBRIUM ITERATIONS.

 TIME INCREMENT COMPLETED  0.500    ,  FRACTION OF STEP COMPLETED  9.406E-02
 STEP TIME COMPLETED        5.64    ,  TOTAL TIME COMPLETED         5.64    


  INCREMENT    21 STARTS. ATTEMPT NUMBER  1, TIME INCREMENT  0.500    
 
	UNSYMMETRIC DIRECT SPARSE SOLVER RUNNING ON
 	1 HOST x 1 MPI RANK PER HOST x 10 THREADS PER RANK
        NUMBER OF EQUATIONS:  59208
        NUMBER OF RHS:        1
        NUMBER OF FLOPS:      6.141e+09
        SOLVER ELAPSED TIME:  108ms

               CONVERGENCE CHECKS FOR EQUILIBRIUM ITERATION     1

   MAX. PENETRATION ERROR 35.6886E-15  AT NODE CONCRETE-1.10591 OF CONTACT PAIR 
   (GENERAL_CONTACT_FACES_4,GENERAL_CONTACT_FACES_2)
   MAX. CONTACT FORCE ERROR -1.01363E-09 AT NODE CONCRETE-1.10542 OF CONTACT 
   PAIR (GENERAL_CONTACT_FACES_3,GENERAL_CONTACT_FACES_1)
          THE CONTACT CONSTRAINTS HAVE CONVERGED.

 AVERAGE FORCE                       2.43       TIME AVG. FORCE       0.796    
 LARGEST SCALED RESIDUAL FORCE      2.657E-08   AT NODE        487   DOF  2
   INSTANCE: ANCHOR-1                                                                        
  CORRESPONDING RESIDUAL FORCE      2.657E-08
 LARGEST INCREMENT OF DISP.         8.333E-03   AT NODE          1   DOF  2
   INSTANCE: ANCHOR-1                                                                        
 LARGEST CORRECTION TO DISP.        3.699E-07   AT NODE      10602   DOF  1
   INSTANCE: CONCRETE-1                                                                      
          THE FORCE     EQUILIBRIUM EQUATIONS HAVE CONVERGED

 ITERATION SUMMARY FOR THE INCREMENT:   1 TOTAL ITERATIONS, OF WHICH
   0 ARE SEVERE DISCONTINUITY ITERATIONS AND  1 ARE EQUILIBRIUM ITERATIONS.

 TIME INCREMENT COMPLETED  0.500    ,  FRACTION OF STEP COMPLETED  0.102    
 STEP TIME COMPLETED        6.14    ,  TOTAL TIME COMPLETED         6.14    


  INCREMENT    22 STARTS. ATTEMPT NUMBER  1, TIME INCREMENT  0.500    
 
	UNSYMMETRIC DIRECT SPARSE SOLVER RUNNING ON
 	1 HOST x 1 MPI RANK PER HOST x 10 THREADS PER RANK
        NUMBER OF EQUATIONS:  59208
        NUMBER OF RHS:        1
        NUMBER OF FLOPS:      6.141e+09
        SOLVER ELAPSED TIME:  109ms

               CONVERGENCE CHECKS FOR EQUILIBRIUM ITERATION     1

   MAX. PENETRATION ERROR 33.0926E-15  AT NODE CONCRETE-1.1646 OF CONTACT PAIR 
   (GENERAL_CONTACT_FACES_3,GENERAL_CONTACT_FACES_1)
   MAX. CONTACT FORCE ERROR 1.06367E-09 AT NODE CONCRETE-1.10605 OF CONTACT 
   PAIR (GENERAL_CONTACT_FACES_4,GENERAL_CONTACT_FACES_2)
          THE CONTACT CONSTRAINTS HAVE CONVERGED.

 AVERAGE FORCE                       2.63       TIME AVG. FORCE       0.879    
 LARGEST SCALED RESIDUAL FORCE      2.648E-08   AT NODE        487   DOF  2
   INSTANCE: ANCHOR-1                                                                        
  CORRESPONDING RESIDUAL FORCE      2.648E-08
 LARGEST INCREMENT OF DISP.         8.333E-03   AT NODE          1   DOF  2
   INSTANCE: ANCHOR-1                                                                        
 LARGEST CORRECTION TO DISP.        3.661E-07   AT NODE      10602   DOF  1
   INSTANCE: CONCRETE-1                                                                      
          THE FORCE     EQUILIBRIUM EQUATIONS HAVE CONVERGED

 ITERATION SUMMARY FOR THE INCREMENT:   1 TOTAL ITERATIONS, OF WHICH
   0 ARE SEVERE DISCONTINUITY ITERATIONS AND  1 ARE EQUILIBRIUM ITERATIONS.

 TIME INCREMENT COMPLETED  0.500    ,  FRACTION OF STEP COMPLETED  0.111    
 STEP TIME COMPLETED        6.64    ,  TOTAL TIME COMPLETED         6.64    


  INCREMENT    23 STARTS. ATTEMPT NUMBER  1, TIME INCREMENT  0.500    
 
	UNSYMMETRIC DIRECT SPARSE SOLVER RUNNING ON
 	1 HOST x 1 MPI RANK PER HOST x 10 THREADS PER RANK
        NUMBER OF EQUATIONS:  59208
        NUMBER OF RHS:        1
        NUMBER OF FLOPS:      6.141e+09
        SOLVER ELAPSED TIME:  104ms

               CONVERGENCE CHECKS FOR EQUILIBRIUM ITERATION     1

   MAX. PENETRATION ERROR -38.3129E-15  AT NODE CONCRETE-1.1647 OF CONTACT PAIR 
   (GENERAL_CONTACT_FACES_3,GENERAL_CONTACT_FACES_1)
   MAX. CONTACT FORCE ERROR -1.35180E-09 AT NODE CONCRETE-1.10606 OF CONTACT 
   PAIR (GENERAL_CONTACT_FACES_4,GENERAL_CONTACT_FACES_2)
          THE CONTACT CONSTRAINTS HAVE CONVERGED.

 AVERAGE FORCE                       2.83       TIME AVG. FORCE       0.964    
 LARGEST SCALED RESIDUAL FORCE      2.641E-08   AT NODE        487   DOF  2
   INSTANCE: ANCHOR-1                                                                        
  CORRESPONDING RESIDUAL FORCE      2.641E-08
 LARGEST INCREMENT OF DISP.         8.333E-03   AT NODE          1   DOF  2
   INSTANCE: ANCHOR-1                                                                        
 LARGEST CORRECTION TO DISP.        3.590E-07   AT NODE      10602   DOF  1
   INSTANCE: CONCRETE-1                                                                      
          THE FORCE     EQUILIBRIUM EQUATIONS HAVE CONVERGED

 ITERATION SUMMARY FOR THE INCREMENT:   1 TOTAL ITERATIONS, OF WHICH
   0 ARE SEVERE DISCONTINUITY ITERATIONS AND  1 ARE EQUILIBRIUM ITERATIONS.

 TIME INCREMENT COMPLETED  0.500    ,  FRACTION OF STEP COMPLETED  0.119    
 STEP TIME COMPLETED        7.14    ,  TOTAL TIME COMPLETED         7.14    


  INCREMENT    24 STARTS. ATTEMPT NUMBER  1, TIME INCREMENT  0.500    
 
	UNSYMMETRIC DIRECT SPARSE SOLVER RUNNING ON
 	1 HOST x 1 MPI RANK PER HOST x 10 THREADS PER RANK
        NUMBER OF EQUATIONS:  59208
        NUMBER OF RHS:        1
        NUMBER OF FLOPS:      6.141e+09
        SOLVER ELAPSED TIME:  106ms

               CONVERGENCE CHECKS FOR EQUILIBRIUM ITERATION     1

   MAX. PENETRATION ERROR 34.7792E-15  AT NODE CONCRETE-1.6558 OF CONTACT PAIR 
   (GENERAL_CONTACT_FACES_3,GENERAL_CONTACT_FACES_1)
   MAX. CONTACT FORCE ERROR 1.26579E-09 AT NODE CONCRETE-1.6558 OF CONTACT PAIR 
   (GENERAL_CONTACT_FACES_3,GENERAL_CONTACT_FACES_1)
          THE CONTACT CONSTRAINTS HAVE CONVERGED.

 AVERAGE FORCE                       3.03       TIME AVG. FORCE        1.05    
 LARGEST SCALED RESIDUAL FORCE      2.633E-08   AT NODE        487   DOF  2
   INSTANCE: ANCHOR-1                                                                        
  CORRESPONDING RESIDUAL FORCE      2.633E-08
 LARGEST INCREMENT OF DISP.         8.333E-03   AT NODE          1   DOF  2
   INSTANCE: ANCHOR-1                                                                        
 LARGEST CORRECTION TO DISP.        3.543E-07   AT NODE      10602   DOF  1
   INSTANCE: CONCRETE-1                                                                      
          THE FORCE     EQUILIBRIUM EQUATIONS HAVE CONVERGED

 ITERATION SUMMARY FOR THE INCREMENT:   1 TOTAL ITERATIONS, OF WHICH
   0 ARE SEVERE DISCONTINUITY ITERATIONS AND  1 ARE EQUILIBRIUM ITERATIONS.

 TIME INCREMENT COMPLETED  0.500    ,  FRACTION OF STEP COMPLETED  0.127    
 STEP TIME COMPLETED        7.64    ,  TOTAL TIME COMPLETED         7.64    


  INCREMENT    25 STARTS. ATTEMPT NUMBER  1, TIME INCREMENT  0.500    
 
	UNSYMMETRIC DIRECT SPARSE SOLVER RUNNING ON
 	1 HOST x 1 MPI RANK PER HOST x 10 THREADS PER RANK
        NUMBER OF EQUATIONS:  59208
        NUMBER OF RHS:        1
        NUMBER OF FLOPS:      6.141e+09
        SOLVER ELAPSED TIME:  108ms

               CONVERGENCE CHECKS FOR EQUILIBRIUM ITERATION     1

   MAX. PENETRATION ERROR -38.7147E-15  AT NODE CONCRETE-1.1639 OF CONTACT PAIR 
   (GENERAL_CONTACT_FACES_4,GENERAL_CONTACT_FACES_2)
   MAX. CONTACT FORCE ERROR -1.03745E-09 AT NODE CONCRETE-1.4759 OF CONTACT 
   PAIR (GENERAL_CONTACT_FACES_4,GENERAL_CONTACT_FACES_2)
          THE CONTACT CONSTRAINTS HAVE CONVERGED.

 AVERAGE FORCE                       3.23       TIME AVG. FORCE        1.14    
 LARGEST SCALED RESIDUAL FORCE      2.626E-08   AT NODE        487   DOF  2
   INSTANCE: ANCHOR-1                                                                        
  CORRESPONDING RESIDUAL FORCE      2.626E-08
 LARGEST INCREMENT OF DISP.         8.333E-03   AT NODE          1   DOF  2
   INSTANCE: ANCHOR-1                                                                        
 LARGEST CORRECTION TO DISP.        3.483E-07   AT NODE      10602   DOF  1
   INSTANCE: CONCRETE-1                                                                      
          THE FORCE     EQUILIBRIUM EQUATIONS HAVE CONVERGED

 ITERATION SUMMARY FOR THE INCREMENT:   1 TOTAL ITERATIONS, OF WHICH
   0 ARE SEVERE DISCONTINUITY ITERATIONS AND  1 ARE EQUILIBRIUM ITERATIONS.

 TIME INCREMENT COMPLETED  0.500    ,  FRACTION OF STEP COMPLETED  0.136    
 STEP TIME COMPLETED        8.14    ,  TOTAL TIME COMPLETED         8.14    


  INCREMENT    26 STARTS. ATTEMPT NUMBER  1, TIME INCREMENT  0.500    
 
	UNSYMMETRIC DIRECT SPARSE SOLVER RUNNING ON
 	1 HOST x 1 MPI RANK PER HOST x 10 THREADS PER RANK
        NUMBER OF EQUATIONS:  59208
        NUMBER OF RHS:        1
        NUMBER OF FLOPS:      6.141e+09
        SOLVER ELAPSED TIME:  113ms

               CONVERGENCE CHECKS FOR EQUILIBRIUM ITERATION     1

   MAX. PENETRATION ERROR -31.9501E-15  AT NODE CONCRETE-1.10592 OF CONTACT 
   PAIR (GENERAL_CONTACT_FACES_4,GENERAL_CONTACT_FACES_2)
   MAX. CONTACT FORCE ERROR -1.16286E-09 AT NODE CONCRETE-1.10592 OF CONTACT 
   PAIR (GENERAL_CONTACT_FACES_4,GENERAL_CONTACT_FACES_2)
          THE CONTACT CONSTRAINTS HAVE CONVERGED.

 AVERAGE FORCE                       3.43       TIME AVG. FORCE        1.23    
 LARGEST SCALED RESIDUAL FORCE      2.618E-08   AT NODE        487   DOF  2
   INSTANCE: ANCHOR-1                                                                        
  CORRESPONDING RESIDUAL FORCE      2.618E-08
 LARGEST INCREMENT OF DISP.         8.333E-03   AT NODE          1   DOF  2
   INSTANCE: ANCHOR-1                                                                        
 LARGEST CORRECTION TO DISP.        3.434E-07   AT NODE      10602   DOF  1
   INSTANCE: CONCRETE-1                                                                      
          THE FORCE     EQUILIBRIUM EQUATIONS HAVE CONVERGED

 ITERATION SUMMARY FOR THE INCREMENT:   1 TOTAL ITERATIONS, OF WHICH
   0 ARE SEVERE DISCONTINUITY ITERATIONS AND  1 ARE EQUILIBRIUM ITERATIONS.

 TIME INCREMENT COMPLETED  0.500    ,  FRACTION OF STEP COMPLETED  0.144    
 STEP TIME COMPLETED        8.64    ,  TOTAL TIME COMPLETED         8.64    


  INCREMENT    27 STARTS. ATTEMPT NUMBER  1, TIME INCREMENT  0.500    
 
	UNSYMMETRIC DIRECT SPARSE SOLVER RUNNING ON
 	1 HOST x 1 MPI RANK PER HOST x 10 THREADS PER RANK
        NUMBER OF EQUATIONS:  59208
        NUMBER OF RHS:        1
        NUMBER OF FLOPS:      6.141e+09
        SOLVER ELAPSED TIME:  103ms

               CONVERGENCE CHECKS FOR EQUILIBRIUM ITERATION     1

   MAX. PENETRATION ERROR -35.6920E-15  AT NODE CONCRETE-1.6496 OF CONTACT PAIR 
   (GENERAL_CONTACT_FACES_3,GENERAL_CONTACT_FACES_1)
   MAX. CONTACT FORCE ERROR -1.29925E-09 AT NODE CONCRETE-1.6496 OF CONTACT 
   PAIR (GENERAL_CONTACT_FACES_3,GENERAL_CONTACT_FACES_1)
          THE CONTACT CONSTRAINTS HAVE CONVERGED.

 AVERAGE FORCE                       3.63       TIME AVG. FORCE        1.31    
 LARGEST SCALED RESIDUAL FORCE      2.611E-08   AT NODE        487   DOF  2
   INSTANCE: ANCHOR-1                                                                        
  CORRESPONDING RESIDUAL FORCE      2.611E-08
 LARGEST INCREMENT OF DISP.         8.333E-03   AT NODE          1   DOF  2
   INSTANCE: ANCHOR-1                                                                        
 LARGEST CORRECTION TO DISP.        3.380E-07   AT NODE      10602   DOF  1
   INSTANCE: CONCRETE-1                                                                      
          THE FORCE     EQUILIBRIUM EQUATIONS HAVE CONVERGED

 ITERATION SUMMARY FOR THE INCREMENT:   1 TOTAL ITERATIONS, OF WHICH
   0 ARE SEVERE DISCONTINUITY ITERATIONS AND  1 ARE EQUILIBRIUM ITERATIONS.

 TIME INCREMENT COMPLETED  0.500    ,  FRACTION OF STEP COMPLETED  0.152    
 STEP TIME COMPLETED        9.14    ,  TOTAL TIME COMPLETED         9.14    


  INCREMENT    28 STARTS. ATTEMPT NUMBER  1, TIME INCREMENT  0.500    
 
	UNSYMMETRIC DIRECT SPARSE SOLVER RUNNING ON
 	1 HOST x 1 MPI RANK PER HOST x 10 THREADS PER RANK
        NUMBER OF EQUATIONS:  59208
        NUMBER OF RHS:        1
        NUMBER OF FLOPS:      6.141e+09
        SOLVER ELAPSED TIME:  99ms

               CONVERGENCE CHECKS FOR EQUILIBRIUM ITERATION     1

   MAX. PENETRATION ERROR -42.8436E-15  AT NODE CONCRETE-1.6496 OF CONTACT PAIR 
   (GENERAL_CONTACT_FACES_3,GENERAL_CONTACT_FACES_1)
   MAX. CONTACT FORCE ERROR -1.55959E-09 AT NODE CONCRETE-1.6496 OF CONTACT 
   PAIR (GENERAL_CONTACT_FACES_3,GENERAL_CONTACT_FACES_1)
          THE CONTACT CONSTRAINTS HAVE CONVERGED.

 AVERAGE FORCE                       3.83       TIME AVG. FORCE        1.40    
 LARGEST SCALED RESIDUAL FORCE      2.604E-08   AT NODE        487   DOF  2
   INSTANCE: ANCHOR-1                                                                        
  CORRESPONDING RESIDUAL FORCE      2.604E-08
 LARGEST INCREMENT OF DISP.         8.333E-03   AT NODE          1   DOF  2
   INSTANCE: ANCHOR-1                                                                        
 LARGEST CORRECTION TO DISP.        3.333E-07   AT NODE      10603   DOF  1
   INSTANCE: CONCRETE-1                                                                      
          THE FORCE     EQUILIBRIUM EQUATIONS HAVE CONVERGED

 ITERATION SUMMARY FOR THE INCREMENT:   1 TOTAL ITERATIONS, OF WHICH
   0 ARE SEVERE DISCONTINUITY ITERATIONS AND  1 ARE EQUILIBRIUM ITERATIONS.

 TIME INCREMENT COMPLETED  0.500    ,  FRACTION OF STEP COMPLETED  0.161    
 STEP TIME COMPLETED        9.64    ,  TOTAL TIME COMPLETED         9.64    


  INCREMENT    29 STARTS. ATTEMPT NUMBER  1, TIME INCREMENT  0.500    
 
	UNSYMMETRIC DIRECT SPARSE SOLVER RUNNING ON
 	1 HOST x 1 MPI RANK PER HOST x 10 THREADS PER RANK
        NUMBER OF EQUATIONS:  59208
        NUMBER OF RHS:        1
        NUMBER OF FLOPS:      6.141e+09
        SOLVER ELAPSED TIME:  97ms

               CONVERGENCE CHECKS FOR EQUILIBRIUM ITERATION     1

   MAX. PENETRATION ERROR -31.7000E-15  AT NODE CONCRETE-1.10542 OF CONTACT 
   PAIR (GENERAL_CONTACT_FACES_3,GENERAL_CONTACT_FACES_1)
   MAX. CONTACT FORCE ERROR -1.15377E-09 AT NODE CONCRETE-1.10542 OF CONTACT 
   PAIR (GENERAL_CONTACT_FACES_3,GENERAL_CONTACT_FACES_1)
          THE CONTACT CONSTRAINTS HAVE CONVERGED.

 AVERAGE FORCE                       4.02       TIME AVG. FORCE        1.49    
 LARGEST SCALED RESIDUAL FORCE      2.596E-08   AT NODE        487   DOF  2
   INSTANCE: ANCHOR-1                                                                        
  CORRESPONDING RESIDUAL FORCE      2.596E-08
 LARGEST INCREMENT OF DISP.         8.333E-03   AT NODE          1   DOF  2
   INSTANCE: ANCHOR-1                                                                        
 LARGEST CORRECTION TO DISP.        3.285E-07   AT NODE      10603   DOF  1
   INSTANCE: CONCRETE-1                                                                      
          THE FORCE     EQUILIBRIUM EQUATIONS HAVE CONVERGED

 ITERATION SUMMARY FOR THE INCREMENT:   1 TOTAL ITERATIONS, OF WHICH
   0 ARE SEVERE DISCONTINUITY ITERATIONS AND  1 ARE EQUILIBRIUM ITERATIONS.

 TIME INCREMENT COMPLETED  0.500    ,  FRACTION OF STEP COMPLETED  0.169    
 STEP TIME COMPLETED        10.1    ,  TOTAL TIME COMPLETED         10.1    


  INCREMENT    30 STARTS. ATTEMPT NUMBER  1, TIME INCREMENT  0.500    
 
	UNSYMMETRIC DIRECT SPARSE SOLVER RUNNING ON
 	1 HOST x 1 MPI RANK PER HOST x 10 THREADS PER RANK
        NUMBER OF EQUATIONS:  59208
        NUMBER OF RHS:        1
        NUMBER OF FLOPS:      6.141e+09
        SOLVER ELAPSED TIME:  104ms

               CONVERGENCE CHECKS FOR EQUILIBRIUM ITERATION     1

   MAX. PENETRATION ERROR -39.9394E-15  AT NODE CONCRETE-1.6569 OF CONTACT PAIR 
   (GENERAL_CONTACT_FACES_3,GENERAL_CONTACT_FACES_1)
   MAX. CONTACT FORCE ERROR -1.45366E-09 AT NODE CONCRETE-1.6569 OF CONTACT 
   PAIR (GENERAL_CONTACT_FACES_3,GENERAL_CONTACT_FACES_1)
          THE CONTACT CONSTRAINTS HAVE CONVERGED.

 AVERAGE FORCE                       4.22       TIME AVG. FORCE        1.59    
 LARGEST SCALED RESIDUAL FORCE      2.589E-08   AT NODE        487   DOF  2
   INSTANCE: ANCHOR-1                                                                        
  CORRESPONDING RESIDUAL FORCE      2.589E-08
 LARGEST INCREMENT OF DISP.         8.333E-03   AT NODE          1   DOF  2
   INSTANCE: ANCHOR-1                                                                        
 LARGEST CORRECTION TO DISP.        3.240E-07   AT NODE      10603   DOF  1
   INSTANCE: CONCRETE-1                                                                      
          THE FORCE     EQUILIBRIUM EQUATIONS HAVE CONVERGED

 ITERATION SUMMARY FOR THE INCREMENT:   1 TOTAL ITERATIONS, OF WHICH
   0 ARE SEVERE DISCONTINUITY ITERATIONS AND  1 ARE EQUILIBRIUM ITERATIONS.

 TIME INCREMENT COMPLETED  0.500    ,  FRACTION OF STEP COMPLETED  0.177    
 STEP TIME COMPLETED        10.6    ,  TOTAL TIME COMPLETED         10.6    


  INCREMENT    31 STARTS. ATTEMPT NUMBER  1, TIME INCREMENT  0.500    
 
	UNSYMMETRIC DIRECT SPARSE SOLVER RUNNING ON
 	1 HOST x 1 MPI RANK PER HOST x 10 THREADS PER RANK
        NUMBER OF EQUATIONS:  59208
        NUMBER OF RHS:        1
        NUMBER OF FLOPS:      6.141e+09
        SOLVER ELAPSED TIME:  99ms

               CONVERGENCE CHECKS FOR EQUILIBRIUM ITERATION     1

   MAX. PENETRATION ERROR -31.7165E-15  AT NODE CONCRETE-1.4792 OF CONTACT PAIR 
   (GENERAL_CONTACT_FACES_4,GENERAL_CONTACT_FACES_2)
   MAX. CONTACT FORCE ERROR -1.15438E-09 AT NODE CONCRETE-1.4792 OF CONTACT 
   PAIR (GENERAL_CONTACT_FACES_4,GENERAL_CONTACT_FACES_2)
          THE CONTACT CONSTRAINTS HAVE CONVERGED.

 AVERAGE FORCE                       4.42       TIME AVG. FORCE        1.68    
 LARGEST SCALED RESIDUAL FORCE      2.581E-08   AT NODE        487   DOF  2
   INSTANCE: ANCHOR-1                                                                        
  CORRESPONDING RESIDUAL FORCE      2.581E-08
 LARGEST INCREMENT OF DISP.         8.333E-03   AT NODE          1   DOF  2
   INSTANCE: ANCHOR-1                                                                        
 LARGEST CORRECTION TO DISP.        3.195E-07   AT NODE      10603   DOF  1
   INSTANCE: CONCRETE-1                                                                      
          THE FORCE     EQUILIBRIUM EQUATIONS HAVE CONVERGED

 ITERATION SUMMARY FOR THE INCREMENT:   1 TOTAL ITERATIONS, OF WHICH
   0 ARE SEVERE DISCONTINUITY ITERATIONS AND  1 ARE EQUILIBRIUM ITERATIONS.

 TIME INCREMENT COMPLETED  0.500    ,  FRACTION OF STEP COMPLETED  0.186    
 STEP TIME COMPLETED        11.1    ,  TOTAL TIME COMPLETED         11.1    


  INCREMENT    32 STARTS. ATTEMPT NUMBER  1, TIME INCREMENT  0.500    
 
	UNSYMMETRIC DIRECT SPARSE SOLVER RUNNING ON
 	1 HOST x 1 MPI RANK PER HOST x 10 THREADS PER RANK
        NUMBER OF EQUATIONS:  59208
        NUMBER OF RHS:        1
        NUMBER OF FLOPS:      6.141e+09
        SOLVER ELAPSED TIME:  107ms

               CONVERGENCE CHECKS FOR EQUILIBRIUM ITERATION     1

   MAX. PENETRATION ERROR -43.7974E-15  AT NODE CONCRETE-1.4759 OF CONTACT PAIR 
   (GENERAL_CONTACT_FACES_4,GENERAL_CONTACT_FACES_2)
   MAX. CONTACT FORCE ERROR -1.59437E-09 AT NODE CONCRETE-1.4759 OF CONTACT 
   PAIR (GENERAL_CONTACT_FACES_4,GENERAL_CONTACT_FACES_2)
          THE CONTACT CONSTRAINTS HAVE CONVERGED.

 AVERAGE FORCE                       4.62       TIME AVG. FORCE        1.77    
 LARGEST SCALED RESIDUAL FORCE      2.574E-08   AT NODE        487   DOF  2
   INSTANCE: ANCHOR-1                                                                        
  CORRESPONDING RESIDUAL FORCE      2.574E-08
 LARGEST INCREMENT OF DISP.         8.333E-03   AT NODE          1   DOF  2
   INSTANCE: ANCHOR-1                                                                        
 LARGEST CORRECTION TO DISP.        3.152E-07   AT NODE      10603   DOF  1
   INSTANCE: CONCRETE-1                                                                      
          THE FORCE     EQUILIBRIUM EQUATIONS HAVE CONVERGED

 ITERATION SUMMARY FOR THE INCREMENT:   1 TOTAL ITERATIONS, OF WHICH
   0 ARE SEVERE DISCONTINUITY ITERATIONS AND  1 ARE EQUILIBRIUM ITERATIONS.

 TIME INCREMENT COMPLETED  0.500    ,  FRACTION OF STEP COMPLETED  0.194    
 STEP TIME COMPLETED        11.6    ,  TOTAL TIME COMPLETED         11.6    


  INCREMENT    33 STARTS. ATTEMPT NUMBER  1, TIME INCREMENT  0.500    
 
	UNSYMMETRIC DIRECT SPARSE SOLVER RUNNING ON
 	1 HOST x 1 MPI RANK PER HOST x 10 THREADS PER RANK
        NUMBER OF EQUATIONS:  59208
        NUMBER OF RHS:        1
        NUMBER OF FLOPS:      6.141e+09
        SOLVER ELAPSED TIME:  101ms

               CONVERGENCE CHECKS FOR EQUILIBRIUM ITERATION     1

   MAX. PENETRATION ERROR -51.3792E-15  AT NODE CONCRETE-1.4792 OF CONTACT PAIR 
   (GENERAL_CONTACT_FACES_4,GENERAL_CONTACT_FACES_2)
   MAX. CONTACT FORCE ERROR -1.87005E-09 AT NODE CONCRETE-1.4792 OF CONTACT 
   PAIR (GENERAL_CONTACT_FACES_4,GENERAL_CONTACT_FACES_2)
          THE CONTACT CONSTRAINTS HAVE CONVERGED.

 AVERAGE FORCE                       4.82       TIME AVG. FORCE        1.86    
 LARGEST SCALED RESIDUAL FORCE      2.567E-08   AT NODE        487   DOF  2
   INSTANCE: ANCHOR-1                                                                        
  CORRESPONDING RESIDUAL FORCE      2.567E-08
 LARGEST INCREMENT OF DISP.         8.333E-03   AT NODE          1   DOF  2
   INSTANCE: ANCHOR-1                                                                        
 LARGEST CORRECTION TO DISP.        3.110E-07   AT NODE      10603   DOF  1
   INSTANCE: CONCRETE-1                                                                      
          THE FORCE     EQUILIBRIUM EQUATIONS HAVE CONVERGED

 ITERATION SUMMARY FOR THE INCREMENT:   1 TOTAL ITERATIONS, OF WHICH
   0 ARE SEVERE DISCONTINUITY ITERATIONS AND  1 ARE EQUILIBRIUM ITERATIONS.

 TIME INCREMENT COMPLETED  0.500    ,  FRACTION OF STEP COMPLETED  0.202    
 STEP TIME COMPLETED        12.1    ,  TOTAL TIME COMPLETED         12.1    


  INCREMENT    34 STARTS. ATTEMPT NUMBER  1, TIME INCREMENT  0.500    
 
	UNSYMMETRIC DIRECT SPARSE SOLVER RUNNING ON
 	1 HOST x 1 MPI RANK PER HOST x 10 THREADS PER RANK
        NUMBER OF EQUATIONS:  59208
        NUMBER OF RHS:        1
        NUMBER OF FLOPS:      6.141e+09
        SOLVER ELAPSED TIME:  106ms

               CONVERGENCE CHECKS FOR EQUILIBRIUM ITERATION     1

   MAX. PENETRATION ERROR -53.2332E-15  AT NODE CONCRETE-1.10542 OF CONTACT 
   PAIR (GENERAL_CONTACT_FACES_3,GENERAL_CONTACT_FACES_1)
   MAX. CONTACT FORCE ERROR -1.93754E-09 AT NODE CONCRETE-1.10542 OF CONTACT 
   PAIR (GENERAL_CONTACT_FACES_3,GENERAL_CONTACT_FACES_1)
          THE CONTACT CONSTRAINTS HAVE CONVERGED.

 AVERAGE FORCE                       5.02       TIME AVG. FORCE        1.95    
 LARGEST SCALED RESIDUAL FORCE      2.560E-08   AT NODE        487   DOF  2
   INSTANCE: ANCHOR-1                                                                        
  CORRESPONDING RESIDUAL FORCE      2.560E-08
 LARGEST INCREMENT OF DISP.         8.333E-03   AT NODE          1   DOF  2
   INSTANCE: ANCHOR-1                                                                        
 LARGEST CORRECTION TO DISP.        3.069E-07   AT NODE      10603   DOF  1
   INSTANCE: CONCRETE-1                                                                      
          THE FORCE     EQUILIBRIUM EQUATIONS HAVE CONVERGED

 ITERATION SUMMARY FOR THE INCREMENT:   1 TOTAL ITERATIONS, OF WHICH
   0 ARE SEVERE DISCONTINUITY ITERATIONS AND  1 ARE EQUILIBRIUM ITERATIONS.

 TIME INCREMENT COMPLETED  0.500    ,  FRACTION OF STEP COMPLETED  0.211    
 STEP TIME COMPLETED        12.6    ,  TOTAL TIME COMPLETED         12.6    


  INCREMENT    35 STARTS. ATTEMPT NUMBER  1, TIME INCREMENT  0.500    
 
	UNSYMMETRIC DIRECT SPARSE SOLVER RUNNING ON
 	1 HOST x 1 MPI RANK PER HOST x 10 THREADS PER RANK
        NUMBER OF EQUATIONS:  59208
        NUMBER OF RHS:        1
        NUMBER OF FLOPS:      6.141e+09
        SOLVER ELAPSED TIME:  108ms

               CONVERGENCE CHECKS FOR EQUILIBRIUM ITERATION     1

   MAX. PENETRATION ERROR -37.3142E-15  AT NODE CONCRETE-1.4759 OF CONTACT PAIR 
   (GENERAL_CONTACT_FACES_4,GENERAL_CONTACT_FACES_2)
   MAX. CONTACT FORCE ERROR -1.35841E-09 AT NODE CONCRETE-1.4759 OF CONTACT 
   PAIR (GENERAL_CONTACT_FACES_4,GENERAL_CONTACT_FACES_2)
          THE CONTACT CONSTRAINTS HAVE CONVERGED.

 AVERAGE FORCE                       5.22       TIME AVG. FORCE        2.05    
 LARGEST SCALED RESIDUAL FORCE      2.552E-08   AT NODE        487   DOF  2
   INSTANCE: ANCHOR-1                                                                        
  CORRESPONDING RESIDUAL FORCE      2.552E-08
 LARGEST INCREMENT OF DISP.         8.333E-03   AT NODE          1   DOF  2
   INSTANCE: ANCHOR-1                                                                        
 LARGEST CORRECTION TO DISP.        3.028E-07   AT NODE      10603   DOF  1
   INSTANCE: CONCRETE-1                                                                      
          THE FORCE     EQUILIBRIUM EQUATIONS HAVE CONVERGED

 ITERATION SUMMARY FOR THE INCREMENT:   1 TOTAL ITERATIONS, OF WHICH
   0 ARE SEVERE DISCONTINUITY ITERATIONS AND  1 ARE EQUILIBRIUM ITERATIONS.

 TIME INCREMENT COMPLETED  0.500    ,  FRACTION OF STEP COMPLETED  0.219    
 STEP TIME COMPLETED        13.1    ,  TOTAL TIME COMPLETED         13.1    


[...]

   MAX. PENETRATION ERROR -63.1738E-15  AT NODE CONCRETE-1.10528 OF CONTACT 
   PAIR (GENERAL_CONTACT_FACES_3,GENERAL_CONTACT_FACES_1)
   MAX. CONTACT FORCE ERROR -2.30163E-09 AT NODE CONCRETE-1.10528 OF CONTACT 
   PAIR (GENERAL_CONTACT_FACES_3,GENERAL_CONTACT_FACES_1)
          THE CONTACT CONSTRAINTS HAVE CONVERGED.

 AVERAGE FORCE                       21.9       TIME AVG. FORCE        10.3    
 LARGEST SCALED RESIDUAL FORCE     -5.149E-08   AT NODE        475   DOF  3
   INSTANCE: ANCHOR-1                                                                        
  CORRESPONDING RESIDUAL FORCE     -5.149E-08
 LARGEST INCREMENT OF DISP.         8.333E-03   AT NODE          1   DOF  2
   INSTANCE: ANCHOR-1                                                                        
 LARGEST CORRECTION TO DISP.        1.937E-07   AT NODE       1647   DOF  1
   INSTANCE: CONCRETE-1                                                                      
          THE FORCE     EQUILIBRIUM RESPONSE WAS LINEAR IN THIS INCREMENT

 ITERATION SUMMARY FOR THE INCREMENT:   1 TOTAL ITERATIONS, OF WHICH
   0 ARE SEVERE DISCONTINUITY ITERATIONS AND  1 ARE EQUILIBRIUM ITERATIONS.

 TIME INCREMENT COMPLETED  0.500    ,  FRACTION OF STEP COMPLETED  0.919    
 STEP TIME COMPLETED        55.1    ,  TOTAL TIME COMPLETED         55.1    


  INCREMENT   120 STARTS. ATTEMPT NUMBER  1, TIME INCREMENT  0.500    
 
	UNSYMMETRIC DIRECT SPARSE SOLVER RUNNING ON
 	1 HOST x 1 MPI RANK PER HOST x 10 THREADS PER RANK
        NUMBER OF EQUATIONS:  59208
        NUMBER OF RHS:        1
        NUMBER OF FLOPS:      6.141e+09
        SOLVER ELAPSED TIME:  98ms

               CONVERGENCE CHECKS FOR EQUILIBRIUM ITERATION     1

   MAX. PENETRATION ERROR -60.8997E-15  AT NODE CONCRETE-1.10592 OF CONTACT 
   PAIR (GENERAL_CONTACT_FACES_4,GENERAL_CONTACT_FACES_2)
   MAX. CONTACT FORCE ERROR -2.21727E-09 AT NODE CONCRETE-1.10592 OF CONTACT 
   PAIR (GENERAL_CONTACT_FACES_4,GENERAL_CONTACT_FACES_2)
          THE CONTACT CONSTRAINTS HAVE CONVERGED.

 AVERAGE FORCE                       22.1       TIME AVG. FORCE        10.4    
 LARGEST SCALED RESIDUAL FORCE     -5.185E-08   AT NODE        475   DOF  3
   INSTANCE: ANCHOR-1                                                                        
  CORRESPONDING RESIDUAL FORCE     -5.185E-08
 LARGEST INCREMENT OF DISP.         8.333E-03   AT NODE          1   DOF  2
   INSTANCE: ANCHOR-1                                                                        
 LARGEST CORRECTION TO DISP.        1.926E-07   AT NODE       1647   DOF  1
   INSTANCE: CONCRETE-1                                                                      
          THE FORCE     EQUILIBRIUM RESPONSE WAS LINEAR IN THIS INCREMENT

 ITERATION SUMMARY FOR THE INCREMENT:   1 TOTAL ITERATIONS, OF WHICH
   0 ARE SEVERE DISCONTINUITY ITERATIONS AND  1 ARE EQUILIBRIUM ITERATIONS.

 TIME INCREMENT COMPLETED  0.500    ,  FRACTION OF STEP COMPLETED  0.927    
 STEP TIME COMPLETED        55.6    ,  TOTAL TIME COMPLETED         55.6    


  INCREMENT   121 STARTS. ATTEMPT NUMBER  1, TIME INCREMENT  0.500    
 
	UNSYMMETRIC DIRECT SPARSE SOLVER RUNNING ON
 	1 HOST x 1 MPI RANK PER HOST x 10 THREADS PER RANK
        NUMBER OF EQUATIONS:  59208
        NUMBER OF RHS:        1
        NUMBER OF FLOPS:      6.141e+09
        SOLVER ELAPSED TIME:  101ms

               CONVERGENCE CHECKS FOR EQUILIBRIUM ITERATION     1

   MAX. PENETRATION ERROR -59.0815E-15  AT NODE CONCRETE-1.6496 OF CONTACT PAIR 
   (GENERAL_CONTACT_FACES_3,GENERAL_CONTACT_FACES_1)
   MAX. CONTACT FORCE ERROR -2.15263E-09 AT NODE CONCRETE-1.6496 OF CONTACT 
   PAIR (GENERAL_CONTACT_FACES_3,GENERAL_CONTACT_FACES_1)
          THE CONTACT CONSTRAINTS HAVE CONVERGED.

 AVERAGE FORCE                       22.3       TIME AVG. FORCE        10.5    
 LARGEST SCALED RESIDUAL FORCE     -5.223E-08   AT NODE        475   DOF  3
   INSTANCE: ANCHOR-1                                                                        
  CORRESPONDING RESIDUAL FORCE     -5.223E-08
 LARGEST INCREMENT OF DISP.         8.333E-03   AT NODE          1   DOF  2
   INSTANCE: ANCHOR-1                                                                        
 LARGEST CORRECTION TO DISP.        1.915E-07   AT NODE       1647   DOF  1
   INSTANCE: CONCRETE-1                                                                      
          THE FORCE     EQUILIBRIUM RESPONSE WAS LINEAR IN THIS INCREMENT

 ITERATION SUMMARY FOR THE INCREMENT:   1 TOTAL ITERATIONS, OF WHICH
   0 ARE SEVERE DISCONTINUITY ITERATIONS AND  1 ARE EQUILIBRIUM ITERATIONS.

 TIME INCREMENT COMPLETED  0.500    ,  FRACTION OF STEP COMPLETED  0.936    
 STEP TIME COMPLETED        56.1    ,  TOTAL TIME COMPLETED         56.1    


  INCREMENT   122 STARTS. ATTEMPT NUMBER  1, TIME INCREMENT  0.500    
 
	UNSYMMETRIC DIRECT SPARSE SOLVER RUNNING ON
 	1 HOST x 1 MPI RANK PER HOST x 10 THREADS PER RANK
        NUMBER OF EQUATIONS:  59208
        NUMBER OF RHS:        1
        NUMBER OF FLOPS:      6.141e+09
        SOLVER ELAPSED TIME:  101ms

               CONVERGENCE CHECKS FOR EQUILIBRIUM ITERATION     1

   MAX. PENETRATION ERROR -53.5416E-15  AT NODE CONCRETE-1.10528 OF CONTACT 
   PAIR (GENERAL_CONTACT_FACES_3,GENERAL_CONTACT_FACES_1)
   MAX. CONTACT FORCE ERROR -1.95075E-09 AT NODE CONCRETE-1.10528 OF CONTACT 
   PAIR (GENERAL_CONTACT_FACES_3,GENERAL_CONTACT_FACES_1)
          THE CONTACT CONSTRAINTS HAVE CONVERGED.

 AVERAGE FORCE                       22.5       TIME AVG. FORCE        10.6    
 LARGEST SCALED RESIDUAL FORCE     -5.259E-08   AT NODE        475   DOF  3
   INSTANCE: ANCHOR-1                                                                        
  CORRESPONDING RESIDUAL FORCE     -5.259E-08
 LARGEST INCREMENT OF DISP.         8.333E-03   AT NODE          1   DOF  2
   INSTANCE: ANCHOR-1                                                                        
 LARGEST CORRECTION TO DISP.        1.904E-07   AT NODE       1647   DOF  1
   INSTANCE: CONCRETE-1                                                                      
          THE FORCE     EQUILIBRIUM RESPONSE WAS LINEAR IN THIS INCREMENT

 ITERATION SUMMARY FOR THE INCREMENT:   1 TOTAL ITERATIONS, OF WHICH
   0 ARE SEVERE DISCONTINUITY ITERATIONS AND  1 ARE EQUILIBRIUM ITERATIONS.

 TIME INCREMENT COMPLETED  0.500    ,  FRACTION OF STEP COMPLETED  0.944    
 STEP TIME COMPLETED        56.6    ,  TOTAL TIME COMPLETED         56.6    


  INCREMENT   123 STARTS. ATTEMPT NUMBER  1, TIME INCREMENT  0.500    
 
	UNSYMMETRIC DIRECT SPARSE SOLVER RUNNING ON
 	1 HOST x 1 MPI RANK PER HOST x 10 THREADS PER RANK
        NUMBER OF EQUATIONS:  59208
        NUMBER OF RHS:        1
        NUMBER OF FLOPS:      6.141e+09
        SOLVER ELAPSED TIME:  104ms

                    2 SEVERE DISCONTINUITIES OCCURRED DURING THIS ITERATION.
                    2 POINTS CHANGED FROM OPEN TO CLOSED

               CONVERGENCE CHECKS FOR SEVERE DISCONTINUITY ITERATION     1

   MAX. PENETRATION ERROR 7.44496E-12 AT NODE ANCHOR-1.37 OF CONTACT PAIR 
   (GENERAL_CONTACT_EDGES_2,GENERAL_CONTACT_FACES_4)
   MAX. CONTACT FORCE ERROR 392.710E-09   AT NODE ANCHOR-1.37 OF CONTACT PAIR 
   (GENERAL_CONTACT_EDGES_2,GENERAL_CONTACT_FACES_4)
          THE CONTACT CONSTRAINT ERRORS ARE WITHIN THE TOLERANCES.

 AVERAGE FORCE                       22.7       TIME AVG. FORCE        10.7    
 LARGEST SCALED RESIDUAL FORCE     -5.296E-08   AT NODE        475   DOF  3
   INSTANCE: ANCHOR-1                                                                        
  CORRESPONDING RESIDUAL FORCE     -5.296E-08
 LARGEST INCREMENT OF DISP.         8.333E-03   AT NODE          1   DOF  2
   INSTANCE: ANCHOR-1                                                                        
 LARGEST CORRECTION TO DISP.        1.893E-07   AT NODE       1647   DOF  1
   INSTANCE: CONCRETE-1                                                                      
          THE FORCE     EQUILIBRIUM EQUATIONS HAVE CONVERGED

 ITERATION SUMMARY FOR THE INCREMENT:   1 TOTAL ITERATIONS, OF WHICH
   1 ARE SEVERE DISCONTINUITY ITERATIONS AND  0 ARE EQUILIBRIUM ITERATIONS.

 TIME INCREMENT COMPLETED  0.500    ,  FRACTION OF STEP COMPLETED  0.952    
 STEP TIME COMPLETED        57.1    ,  TOTAL TIME COMPLETED         57.1    


  INCREMENT   124 STARTS. ATTEMPT NUMBER  1, TIME INCREMENT  0.500    
 
	UNSYMMETRIC DIRECT SPARSE SOLVER RUNNING ON
 	1 HOST x 1 MPI RANK PER HOST x 10 THREADS PER RANK
        NUMBER OF EQUATIONS:  59208
        NUMBER OF RHS:        1
        NUMBER OF FLOPS:      6.141e+09
        SOLVER ELAPSED TIME:  103ms

               CONVERGENCE CHECKS FOR EQUILIBRIUM ITERATION     1

   MAX. PENETRATION ERROR -52.4987E-15  AT NODE CONCRETE-1.4792 OF CONTACT PAIR 
   (GENERAL_CONTACT_FACES_4,GENERAL_CONTACT_FACES_2)
   MAX. CONTACT FORCE ERROR -1.91143E-09 AT NODE CONCRETE-1.4792 OF CONTACT 
   PAIR (GENERAL_CONTACT_FACES_4,GENERAL_CONTACT_FACES_2)
          THE CONTACT CONSTRAINTS HAVE CONVERGED.

 AVERAGE FORCE                       22.9       TIME AVG. FORCE        10.8    
 LARGEST SCALED RESIDUAL FORCE     -5.333E-08   AT NODE        475   DOF  3
   INSTANCE: ANCHOR-1                                                                        
  CORRESPONDING RESIDUAL FORCE     -5.333E-08
 LARGEST INCREMENT OF DISP.         8.333E-03   AT NODE          1   DOF  2
   INSTANCE: ANCHOR-1                                                                        
 LARGEST CORRECTION TO DISP.        1.882E-07   AT NODE       1647   DOF  1
   INSTANCE: CONCRETE-1                                                                      
          THE FORCE     EQUILIBRIUM RESPONSE WAS LINEAR IN THIS INCREMENT

 ITERATION SUMMARY FOR THE INCREMENT:   1 TOTAL ITERATIONS, OF WHICH
   0 ARE SEVERE DISCONTINUITY ITERATIONS AND  1 ARE EQUILIBRIUM ITERATIONS.

 TIME INCREMENT COMPLETED  0.500    ,  FRACTION OF STEP COMPLETED  0.961    
 STEP TIME COMPLETED        57.6    ,  TOTAL TIME COMPLETED         57.6    


  INCREMENT   125 STARTS. ATTEMPT NUMBER  1, TIME INCREMENT  0.500    
 
	UNSYMMETRIC DIRECT SPARSE SOLVER RUNNING ON
 	1 HOST x 1 MPI RANK PER HOST x 10 THREADS PER RANK
        NUMBER OF EQUATIONS:  59208
        NUMBER OF RHS:        1
        NUMBER OF FLOPS:      6.141e+09
        SOLVER ELAPSED TIME:  106ms

                    2 SEVERE DISCONTINUITIES OCCURRED DURING THIS ITERATION.
                    2 POINTS CHANGED FROM OPEN TO CLOSED

               CONVERGENCE CHECKS FOR SEVERE DISCONTINUITY ITERATION     1

   MAX. PENETRATION ERROR 7.58232E-12 AT NODE ANCHOR-1.477 OF CONTACT PAIR 
   (GENERAL_CONTACT_EDGES_2,GENERAL_CONTACT_FACES_4)
   MAX. CONTACT FORCE ERROR 399.945E-09   AT NODE ANCHOR-1.477 OF CONTACT PAIR 
   (GENERAL_CONTACT_EDGES_2,GENERAL_CONTACT_FACES_4)
          THE CONTACT CONSTRAINT ERRORS ARE WITHIN THE TOLERANCES.

 AVERAGE FORCE                       23.1       TIME AVG. FORCE        10.9    
 LARGEST SCALED RESIDUAL FORCE     -5.366E-08   AT NODE        475   DOF  3
   INSTANCE: ANCHOR-1                                                                        
  CORRESPONDING RESIDUAL FORCE     -5.366E-08
 LARGEST INCREMENT OF DISP.         8.333E-03   AT NODE          1   DOF  2
   INSTANCE: ANCHOR-1                                                                        
 LARGEST CORRECTION TO DISP.        1.871E-07   AT NODE       1647   DOF  1
   INSTANCE: CONCRETE-1                                                                      
          THE FORCE     EQUILIBRIUM EQUATIONS HAVE CONVERGED

 ITERATION SUMMARY FOR THE INCREMENT:   1 TOTAL ITERATIONS, OF WHICH
   1 ARE SEVERE DISCONTINUITY ITERATIONS AND  0 ARE EQUILIBRIUM ITERATIONS.

 TIME INCREMENT COMPLETED  0.500    ,  FRACTION OF STEP COMPLETED  0.969    
 STEP TIME COMPLETED        58.1    ,  TOTAL TIME COMPLETED         58.1    


  INCREMENT   126 STARTS. ATTEMPT NUMBER  1, TIME INCREMENT  0.500    
 
	UNSYMMETRIC DIRECT SPARSE SOLVER RUNNING ON
 	1 HOST x 1 MPI RANK PER HOST x 10 THREADS PER RANK
        NUMBER OF EQUATIONS:  59208
        NUMBER OF RHS:        1
        NUMBER OF FLOPS:      6.141e+09
        SOLVER ELAPSED TIME:  107ms

               CONVERGENCE CHECKS FOR EQUILIBRIUM ITERATION     1

   MAX. PENETRATION ERROR -59.0956E-15  AT NODE CONCRETE-1.10606 OF CONTACT 
   PAIR (GENERAL_CONTACT_FACES_4,GENERAL_CONTACT_FACES_2)
   MAX. CONTACT FORCE ERROR -2.15316E-09 AT NODE CONCRETE-1.10606 OF CONTACT 
   PAIR (GENERAL_CONTACT_FACES_4,GENERAL_CONTACT_FACES_2)
          THE CONTACT CONSTRAINTS HAVE CONVERGED.

 AVERAGE FORCE                       23.3       TIME AVG. FORCE        11.0    
 LARGEST SCALED RESIDUAL FORCE     -5.403E-08   AT NODE        475   DOF  3
   INSTANCE: ANCHOR-1                                                                        
  CORRESPONDING RESIDUAL FORCE     -5.403E-08
 LARGEST INCREMENT OF DISP.         8.333E-03   AT NODE          1   DOF  2
   INSTANCE: ANCHOR-1                                                                        
 LARGEST CORRECTION TO DISP.        1.860E-07   AT NODE       1647   DOF  1
   INSTANCE: CONCRETE-1                                                                      
          THE FORCE     EQUILIBRIUM RESPONSE WAS LINEAR IN THIS INCREMENT

 ITERATION SUMMARY FOR THE INCREMENT:   1 TOTAL ITERATIONS, OF WHICH
   0 ARE SEVERE DISCONTINUITY ITERATIONS AND  1 ARE EQUILIBRIUM ITERATIONS.

 TIME INCREMENT COMPLETED  0.500    ,  FRACTION OF STEP COMPLETED  0.977    
 STEP TIME COMPLETED        58.6    ,  TOTAL TIME COMPLETED         58.6    


  INCREMENT   127 STARTS. ATTEMPT NUMBER  1, TIME INCREMENT  0.500    
 
	UNSYMMETRIC DIRECT SPARSE SOLVER RUNNING ON
 	1 HOST x 1 MPI RANK PER HOST x 10 THREADS PER RANK
        NUMBER OF EQUATIONS:  59208
        NUMBER OF RHS:        1
        NUMBER OF FLOPS:      6.141e+09
        SOLVER ELAPSED TIME:  99ms

               CONVERGENCE CHECKS FOR EQUILIBRIUM ITERATION     1

   MAX. PENETRATION ERROR -66.2795E-15  AT NODE CONCRETE-1.4792 OF CONTACT PAIR 
   (GENERAL_CONTACT_FACES_4,GENERAL_CONTACT_FACES_2)
   MAX. CONTACT FORCE ERROR -2.41320E-09 AT NODE CONCRETE-1.4792 OF CONTACT 
   PAIR (GENERAL_CONTACT_FACES_4,GENERAL_CONTACT_FACES_2)
          THE CONTACT CONSTRAINTS HAVE CONVERGED.

 AVERAGE FORCE                       23.5       TIME AVG. FORCE        11.1    
 LARGEST SCALED RESIDUAL FORCE     -5.439E-08   AT NODE        475   DOF  3
   INSTANCE: ANCHOR-1                                                                        
  CORRESPONDING RESIDUAL FORCE     -5.439E-08
 LARGEST INCREMENT OF DISP.         8.333E-03   AT NODE          1   DOF  2
   INSTANCE: ANCHOR-1                                                                        
 LARGEST CORRECTION TO DISP.        1.849E-07   AT NODE       1647   DOF  1
   INSTANCE: CONCRETE-1                                                                      
          THE FORCE     EQUILIBRIUM RESPONSE WAS LINEAR IN THIS INCREMENT

 ITERATION SUMMARY FOR THE INCREMENT:   1 TOTAL ITERATIONS, OF WHICH
   0 ARE SEVERE DISCONTINUITY ITERATIONS AND  1 ARE EQUILIBRIUM ITERATIONS.

 TIME INCREMENT COMPLETED  0.500    ,  FRACTION OF STEP COMPLETED  0.986    
 STEP TIME COMPLETED        59.1    ,  TOTAL TIME COMPLETED         59.1    


  INCREMENT   128 STARTS. ATTEMPT NUMBER  1, TIME INCREMENT  0.500    
 
	UNSYMMETRIC DIRECT SPARSE SOLVER RUNNING ON
 	1 HOST x 1 MPI RANK PER HOST x 10 THREADS PER RANK
        NUMBER OF EQUATIONS:  59208
        NUMBER OF RHS:        1
        NUMBER OF FLOPS:      6.141e+09
        SOLVER ELAPSED TIME:  97ms

               CONVERGENCE CHECKS FOR EQUILIBRIUM ITERATION     1

   MAX. PENETRATION ERROR -54.9023E-15  AT NODE CONCRETE-1.4759 OF CONTACT PAIR 
   (GENERAL_CONTACT_FACES_4,GENERAL_CONTACT_FACES_2)
   MAX. CONTACT FORCE ERROR -2.00047E-09 AT NODE CONCRETE-1.4759 OF CONTACT 
   PAIR (GENERAL_CONTACT_FACES_4,GENERAL_CONTACT_FACES_2)
          THE CONTACT CONSTRAINTS HAVE CONVERGED.

 AVERAGE FORCE                       23.7       TIME AVG. FORCE        11.2    
 LARGEST SCALED RESIDUAL FORCE     -5.473E-08   AT NODE        475   DOF  3
   INSTANCE: ANCHOR-1                                                                        
  CORRESPONDING RESIDUAL FORCE     -5.473E-08
 LARGEST INCREMENT OF DISP.         8.333E-03   AT NODE          1   DOF  2
   INSTANCE: ANCHOR-1                                                                        
 LARGEST CORRECTION TO DISP.        1.838E-07   AT NODE       1647   DOF  1
   INSTANCE: CONCRETE-1                                                                      
          THE FORCE     EQUILIBRIUM RESPONSE WAS LINEAR IN THIS INCREMENT

 ITERATION SUMMARY FOR THE INCREMENT:   1 TOTAL ITERATIONS, OF WHICH
   0 ARE SEVERE DISCONTINUITY ITERATIONS AND  1 ARE EQUILIBRIUM ITERATIONS.

 TIME INCREMENT COMPLETED  0.500    ,  FRACTION OF STEP COMPLETED  0.994    
 STEP TIME COMPLETED        59.6    ,  TOTAL TIME COMPLETED         59.6    


  INCREMENT   129 STARTS. ATTEMPT NUMBER  1, TIME INCREMENT  0.357    
 
	UNSYMMETRIC DIRECT SPARSE SOLVER RUNNING ON
 	1 HOST x 1 MPI RANK PER HOST x 10 THREADS PER RANK
        NUMBER OF EQUATIONS:  59208
        NUMBER OF RHS:        1
        NUMBER OF FLOPS:      6.141e+09
        SOLVER ELAPSED TIME:  97ms

               CONVERGENCE CHECKS FOR EQUILIBRIUM ITERATION     1

   MAX. PENETRATION ERROR 906.334E-15   AT NODE CONCRETE-1.10542 OF CONTACT 
   PAIR (GENERAL_CONTACT_FACES_3,GENERAL_CONTACT_FACES_1)
   MAX. CONTACT FORCE ERROR 32.9996E-09  AT NODE CONCRETE-1.10542 OF CONTACT 
   PAIR (GENERAL_CONTACT_FACES_3,GENERAL_CONTACT_FACES_1)
          THE CONTACT CONSTRAINTS HAVE CONVERGED.

 AVERAGE FORCE                       23.9       TIME AVG. FORCE        11.2    
 LARGEST SCALED RESIDUAL FORCE     -6.350E-06   AT NODE         26   DOF  1
   INSTANCE: ANCHOR-1                                                                        
  CORRESPONDING RESIDUAL FORCE     -6.350E-06
 LARGEST INCREMENT OF DISP.         5.945E-03   AT NODE          1   DOF  2
   INSTANCE: ANCHOR-1                                                                        
 LARGEST CORRECTION TO DISP.       -2.294E-06   AT NODE       1647   DOF  1
   INSTANCE: CONCRETE-1                                                                      
          THE FORCE     EQUILIBRIUM EQUATIONS HAVE CONVERGED

 ITERATION SUMMARY FOR THE INCREMENT:   1 TOTAL ITERATIONS, OF WHICH
   0 ARE SEVERE DISCONTINUITY ITERATIONS AND  1 ARE EQUILIBRIUM ITERATIONS.

 TIME INCREMENT COMPLETED  0.357    ,  FRACTION OF STEP COMPLETED   1.00    
 STEP TIME COMPLETED        60.0    ,  TOTAL TIME COMPLETED         60.0    


          THE ANALYSIS HAS BEEN COMPLETED



     ANALYSIS SUMMARY:
     TOTAL OF        129  INCREMENTS
                       0  CUTBACKS IN AUTOMATIC INCREMENTATION
                     141  ITERATIONS INCLUDING CONTACT ITERATIONS IF PRESENT
                     141  PASSES THROUGH THE EQUATION SOLVER OF WHICH 
                     141  INVOLVE MATRIX DECOMPOSITION, INCLUDING
                       0  DECOMPOSITION(S) OF THE MASS MATRIX
                       1  REORDERING OF EQUATIONS TO MINIMIZE WAVEFRONT
                       0  ADDITIONAL RESIDUAL EVALUATIONS FOR LINE SEARCHES
                       0  ADDITIONAL OPERATOR EVALUATIONS FOR LINE SEARCHES
                       2  WARNING MESSAGES DURING USER INPUT PROCESSING
                       0  WARNING MESSAGES DURING ANALYSIS
                       0  ANALYSIS WARNINGS ARE NUMERICAL PROBLEM MESSAGES
                       0  ANALYSIS WARNINGS ARE NEGATIVE EIGENVALUE MESSAGES
                       0  ERROR MESSAGES



     JOB TIME SUMMARY
       USER TIME (SEC)      =     2.49E+02
       SYSTEM TIME (SEC)    =      35.    
       TOTAL CPU TIME (SEC) =     2.84E+02
       WALLCLOCK TIME (SEC) =           49
       MEMORY PEAK (GB)     =            4
